<?xml version="1.0" encoding="UTF-8"?>

<!-- generated on Mon May 11 12:04:46 2020 by Eclipse SUMO duarouter Version 1.2.0
<configuration xmlns:xsi="http://www.w3.org/2001/XMLSchema-instance" xsi:noNamespaceSchemaLocation="http://sumo.dlr.de/xsd/duarouterConfiguration.xsd">

    <input>
        <net-file value="osm.net.xml"/>
        <route-files value="osm.passenger.trips.xml"/>
    </input>

    <output>
        <output-file value="routes.rou.xml"/>
        <alternatives-output value="routes.rou.alt.xml"/>
    </output>

    <time>
        <begin value="0"/>
    </time>

    <report>
        <no-warnings value="true"/>
        <no-step-log value="true"/>
    </report>

</configuration>
-->
<!--
<routes xmlns:xsi="http://www.w3.org/2001/XMLSchema-instance" xsi:noNamespaceSchemaLocation="http://sumo.dlr.de/xsd/routes_file.xsd">
    <vType id="veh_passenger" vClass="passenger"/>
    <vehicle id="veh0" type="veh_passenger" depart="0.00" departLane="best">
        <route edges="199125744#0 199125744#1 132083442 783966692#0 783966692#2 132083441#0 132083441#1 132087634#0 132087634#1 132087634#3 579052673 132087619 579052538#0 579052537#0 579052537#1 569691082#0 569691082#1 198119323 579052313#1 579051021 -711800833 -293955187#16 -293955187#15 -293955187#13 -293955187#10 -293955187#9 -293955187#8 -293955187#6 -293955187#4 -293955187#3 -293955187#1 -293955187#0 -713466172#1 -761332758 -713466173 -794272993 -293954926 -794272994#3 -794272994#1 -794272994#0 -485231265 -761112063#1 -794376608 -207151769#1 -794385583 -132196550 -216022509#16 -216022509#15 -216022509#14 -216022509#13 -216022509#12 -216022509#11 -216022509#10 -216022509#8 -216022509#7 -216022509#6 -216022509#5 -216022509#3 -216022509#2 -216022509#1 -782715600#1 -782715600#0 34236488#1 185704432#2 185704432#3 784224591#0 784224591#1 755045930 28357243#0 28357243#1 28357243#2 28357243#3 -28357220#5 -28357220#4 -28357220#3 -28357220#2 -28357220#1 27773238#1 51968810#0 51968810#1 51968809#0 51968809#1 -4080210#13 -4080210#12 -4080210#11 -4080210#10 -4080210#9 -4080210#8 -4080210#7 -4080210#6 -4080210#5 -4080210#4 -4080210#3 -4080210#1 -4080210#0 -25452787#23 -25452787#21 -25452787#20 -25452787#19 -25452787#17 -25452787#16 -25452787#15 -25452787#14 -25452787#13 -25452787#12 -25452787#11 -25452787#9 -25452787#8 -25452787#7 -25452787#6 -25452787#5 -25452787#4 -25452787#3 -25452787#2 -25452787#1 -798263052#10 -798263052#8 -798263052#7 -798263052#6 -798263052#4 -798263052#3 -798263052#2 -798263052#1 -798263052#0 -24282660 -215559002#0 -798263054#3 -798263054#1 -798263054#0 215555721#0 -202908951 -24282666 41890064#0 41890064#1 41890064#3 132924141#0 132924141#1 5710566 132600526#0 132600526#2 132600979#1 132600979#2 132600979#3 132708323#1 132708323#2 132708323#4 132600520#2 132600520#7 132600521#1 132600521#2 132600521#3 132600521#4 132600521#6 132600521#7 132600521#8 132600521#9 132600521#11 132600521#12 132600521#13 -755605373#1 -755605373#0 -759938283#4 -759938283#3 -759938283#2 -759938283#0 -131710577#12 -131710577#11 -131710577#10 -131710577#8 -131710577#7 -131710577#4 -131710577#3 -131710577#1 -131710577#0 131710568#0 131710568#1 569735698#0 783938628#0 783938628#1 432512809#0 432512809#2 432512809#4 432512809#5 432512809#6 543838201#0 543838201#1 543838201#2 543838201#3 576909781 206718674#0 206718674#1 198006959 782638794#0 782638794#1 782638794#2 782638794#3 782638794#4 782638794#5 782638794#6 782638794#9 782638794#10 576910402 294284942#0 294284942#1 294284942#2 294284942#3 294284942#6 159253197#0 208664857#0 576910899#2"/>
    </vehicle>
</routes> -->



<routes xmlns:xsi="http://www.w3.org/2001/XMLSchema-instance" xsi:noNamespaceSchemaLocation="http://sumo.dlr.de/xsd/routes_file.xsd">
   <vType id="veh_passenger" vClass="passenger"/>
   <route id="route0" edges="199125744#0 199125744#1 132083442 783966692#0 783966692#2 132083441#0 132083441#1 132087634#0 132087634#1 132087634#3 579052673 132087619 579052538#0 579052537#0 579052537#1 569691082#0 569691082#1 198119323 579052313#1 579051021 -711800833 -293955187#16 -293955187#15 -293955187#13 -293955187#10 -293955187#9 -293955187#8 -293955187#6 -293955187#4 -293955187#3 -293955187#1 -293955187#0 -713466172#1 -761332758 -713466173 -794272993 -293954926 -794272994#3 -794272994#1 -794272994#0 -485231265 -761112063#1 -794376608 -207151769#1 -794385583 -132196550 -216022509#16 -216022509#15 -216022509#14 -216022509#13 -216022509#12 -216022509#11 -216022509#10 -216022509#8 -216022509#7 -216022509#6 -216022509#5 -216022509#3 -216022509#2 -216022509#1 -782715600#1 -782715600#0 34236488#1 185704432#2 185704432#3 784224591#0 784224591#1 755045930 28357243#0 28357243#1 28357243#2 28357243#3 -28357220#5 -28357220#4 -28357220#3 -28357220#2 -28357220#1 27773238#1 51968810#0 51968810#1 51968809#0 51968809#1 -4080210#13 -4080210#12 -4080210#11 -4080210#10 -4080210#9 -4080210#8 -4080210#7 -4080210#6 -4080210#5 -4080210#4 -4080210#3 -4080210#1 -4080210#0 -25452787#23 -25452787#21 -25452787#20 -25452787#19 -25452787#17 -25452787#16 -25452787#15 -25452787#14 -25452787#13 -25452787#12 -25452787#11 -25452787#9 -25452787#8 -25452787#7 -25452787#6 -25452787#5 -25452787#4 -25452787#3 -25452787#2 -25452787#1 -798263052#10 -798263052#8 -798263052#7 -798263052#6 -798263052#4 -798263052#3 -798263052#2 -798263052#1 -798263052#0 -24282660 -215559002#0 -798263054#3 -798263054#1 -798263054#0 215555721#0 -202908951 -24282666 41890064#0 41890064#1 41890064#3 132924141#0 132924141#1 5710566 132600526#0 132600526#2 132600979#1 132600979#2 132600979#3 132708323#1 132708323#2 132708323#4 132600520#2 132600520#7 132600521#1 132600521#2 132600521#3 132600521#4 132600521#6 132600521#7 132600521#8 132600521#9 132600521#11 132600521#12 132600521#13 -755605373#1 -755605373#0 -759938283#4 -759938283#3 -759938283#2 -759938283#0 -131710577#12 -131710577#11 -131710577#10 -131710577#8 -131710577#7 -131710577#4 -131710577#3 -131710577#1 -131710577#0 131710568#0 131710568#1 569735698#0 783938628#0 783938628#1 432512809#0 432512809#2 432512809#4 432512809#5 432512809#6 543838201#0 543838201#1 543838201#2 543838201#3 576909781 206718674#0 206718674#1 198006959 782638794#0 782638794#1 782638794#2 782638794#3 782638794#4 782638794#5 782638794#6 782638794#9 782638794#10 576910402 294284942#0 294284942#1 294284942#2 294284942#3 294284942#6 159253197#0 208664857#0 576910899#2"/>
   <flow id="flow0" type="veh_passenger" route="route0" begin="0" period="3" number="100"/>
</routes>
