<?xml version="1.0" encoding="UTF-8"?>

<!-- generated on Sun Mar  1 14:35:33 2020 by Eclipse SUMO polyconvert Version 1.2.0
<configuration xmlns:xsi="http://www.w3.org/2001/XMLSchema-instance" xsi:noNamespaceSchemaLocation="http://sumo.dlr.de/xsd/polyconvertConfiguration.xsd">

    <input>
        <net-file value="osm.net.xml"/>
        <osm-files value="osm_bbox.osm.xml"/>
        <osm.keep-full-type value="true"/>
        <type-file value="/home/rohan/Downloads/sumo-1.2.0/data/typemap/osmPolyconvert.typ.xml"/>
    </input>

    <output>
        <output-file value="osm.poly.xml"/>
    </output>

    <processing>
        <poi-layer-offset value="5"/>
    </processing>

    <report>
        <verbose value="true"/>
    </report>

</configuration>
-->

<additional xmlns:xsi="http://www.w3.org/2001/XMLSchema-instance" xsi:noNamespaceSchemaLocation="http://sumo.dlr.de/xsd/additional_file.xsd">
    <location netOffset="-317409.99,4188694.87" convBoundary="-1635.52,-3858.07,9120.35,6057.32" origBoundary="144.849473,-37.939328,145.028809,-37.773845" projParameter="+proj=utm +zone=55 +ellps=WGS84 +datum=WGS84 +units=m +no_defs"/>

    <poly id="10448101" type="amenity.parking" color="184,184,179" fill="1" layer="-1.00" shape="2628.748781,2085.918550 2698.627183,2077.677683 2697.459294,2066.239356 2692.606756,2066.610591 2685.138042,2062.561534 2679.928255,2063.158087 2679.545582,2058.908779 2674.103191,2059.267098 2666.673093,2053.453662 2661.465980,2053.928140 2661.160199,2051.800981 2655.346658,2052.617449 2647.895941,2047.747208 2642.797937,2048.468304 2642.424088,2044.219185 2636.736474,2044.916274 2629.254692,2041.466382 2623.089245,2042.264024 2628.748781,2085.918550"/>
    <poly id="10583685" type="building.stadium" color="255,230,230" fill="1" layer="-1.00" shape="2000.368177,1205.378255 1995.081316,1198.678641 1985.372258,1188.817729 1977.244331,1182.755117 1967.886582,1178.552818 1955.699431,1174.055201 1943.468648,1171.543866 1928.099363,1172.382963 1920.138988,1174.328518 1911.313606,1178.364437 1903.278351,1183.716647 1889.992968,1194.726502 1881.008414,1208.406537 1871.895134,1225.136785 1867.596581,1237.987239 1863.473983,1253.650367 1860.953030,1269.370905 1862.931117,1289.164857 1865.101779,1297.794423 1869.028685,1307.062098 1876.049838,1315.798274 1885.677152,1323.770175 1893.591893,1329.117658 1903.056422,1333.677643 1913.350889,1338.144835 1923.820546,1340.251137 1933.978290,1340.119069 1944.399315,1338.827064 1954.527942,1334.808631 1965.655043,1328.236459 1980.328663,1316.579751 1997.224439,1293.570078 2003.580747,1277.245433 2009.288838,1261.561563 2009.913797,1243.934218 2008.403325,1226.493112 2004.673376,1213.466257 2000.368177,1205.378255"/>
    <poly id="10583685#1" type="leisure.pitch" color="207,245,201" fill="1" layer="-2.00" shape="2000.368177,1205.378255 1995.081316,1198.678641 1985.372258,1188.817729 1977.244331,1182.755117 1967.886582,1178.552818 1955.699431,1174.055201 1943.468648,1171.543866 1928.099363,1172.382963 1920.138988,1174.328518 1911.313606,1178.364437 1903.278351,1183.716647 1889.992968,1194.726502 1881.008414,1208.406537 1871.895134,1225.136785 1867.596581,1237.987239 1863.473983,1253.650367 1860.953030,1269.370905 1862.931117,1289.164857 1865.101779,1297.794423 1869.028685,1307.062098 1876.049838,1315.798274 1885.677152,1323.770175 1893.591893,1329.117658 1903.056422,1333.677643 1913.350889,1338.144835 1923.820546,1340.251137 1933.978290,1340.119069 1944.399315,1338.827064 1954.527942,1334.808631 1965.655043,1328.236459 1980.328663,1316.579751 1997.224439,1293.570078 2003.580747,1277.245433 2009.288838,1261.561563 2009.913797,1243.934218 2008.403325,1226.493112 2004.673376,1213.466257 2000.368177,1205.378255"/>
    <poly id="10583685#2" type="sport.australian_football;soccer" color="79,230,125" fill="1" layer="-2.00" shape="2000.368177,1205.378255 1995.081316,1198.678641 1985.372258,1188.817729 1977.244331,1182.755117 1967.886582,1178.552818 1955.699431,1174.055201 1943.468648,1171.543866 1928.099363,1172.382963 1920.138988,1174.328518 1911.313606,1178.364437 1903.278351,1183.716647 1889.992968,1194.726502 1881.008414,1208.406537 1871.895134,1225.136785 1867.596581,1237.987239 1863.473983,1253.650367 1860.953030,1269.370905 1862.931117,1289.164857 1865.101779,1297.794423 1869.028685,1307.062098 1876.049838,1315.798274 1885.677152,1323.770175 1893.591893,1329.117658 1903.056422,1333.677643 1913.350889,1338.144835 1923.820546,1340.251137 1933.978290,1340.119069 1944.399315,1338.827064 1954.527942,1334.808631 1965.655043,1328.236459 1980.328663,1316.579751 1997.224439,1293.570078 2003.580747,1277.245433 2009.288838,1261.561563 2009.913797,1243.934218 2008.403325,1226.493112 2004.673376,1213.466257 2000.368177,1205.378255"/>
    <poly id="106470193" type="building.retail" color="255,230,230" fill="1" layer="-1.00" shape="1211.624068,1534.632708 1219.049500,1519.031585 1175.352571,1502.780068 1144.360499,1588.514643 1144.768741,1593.164311 1144.490565,1597.787731 1167.270790,1606.805657 1177.287206,1602.319379 1192.727351,1571.962833 1166.593630,1562.449104 1180.690256,1523.125781 1211.624068,1534.632708"/>
    <poly id="106472113" type="building.yes" color="255,230,230" fill="1" layer="-1.00" shape="1091.922952,1713.265829 1097.634603,1716.667002 1102.639038,1720.185788 1107.279840,1723.818667 1112.367628,1728.749247 1114.004154,1727.231076 1124.856393,1705.233150 1104.668996,1697.649002 1091.922952,1713.265829"/>
    <poly id="106472114" type="building.retail" color="255,230,230" fill="1" layer="-1.00" shape="1149.197403,1659.097232 1166.682189,1625.099960 1138.364976,1610.752987 1136.534777,1613.066235 1134.609222,1614.911093 1107.219524,1691.432631 1127.755128,1699.202090 1132.168375,1690.795304 1149.197403,1659.097232"/>
    <poly id="106472115" type="building.yes" color="255,230,230" fill="1" layer="-1.00" shape="1088.605987,1692.354049 1076.058723,1688.191366 1066.533437,1685.982726 1059.719103,1684.655476 1053.592407,1683.698666 1051.084187,1701.162348 1059.203900,1702.407402 1066.727151,1704.338711 1074.001459,1706.375538 1081.856037,1709.257822 1088.605987,1692.354049"/>
    <poly id="106472437" type="tourism.attraction" color="207,245,201" fill="1" layer="-2.00" shape="1091.508158,1778.747720 1069.472001,1787.076351 1033.517283,1783.928960 1017.377442,1776.522787 1000.955815,1765.924064 994.724901,1759.313961 987.801249,1746.582417 1002.884595,1742.796645 1000.670805,1736.153131 1020.134616,1721.062241 1031.489223,1720.602419 1035.166920,1719.984190 1041.847184,1711.427662 1056.787616,1714.111144 1075.570937,1719.466207 1086.484253,1722.638045 1098.288351,1728.549533 1108.554929,1737.480136 1101.292725,1752.851636 1097.155172,1763.928987 1095.152006,1774.476139 1091.508158,1778.747720"/>
    <poly id="106472449" type="building.retail" color="255,230,230" fill="1" layer="-1.00" shape="1116.796411,1603.105070 1078.016540,1588.726799 1060.922647,1587.050497 1057.780286,1606.509655 1055.532087,1622.569117 1053.905542,1637.598709 1053.522856,1649.347346 1053.065963,1670.042608 1091.152201,1683.939378 1118.104775,1608.074362 1116.796411,1603.105070"/>
    <poly id="106472634" type="building.retail" color="255,230,230" fill="1" layer="-1.00" shape="1129.002521,1580.815064 1158.613628,1502.588365 1160.717769,1497.039356 1107.126867,1468.567812 1100.105310,1481.824122 1097.289781,1480.496340 1088.941051,1495.222125 1082.980984,1508.268711 1076.995177,1522.480442 1070.288580,1539.818141 1066.958265,1551.435095 1065.797261,1556.150046 1065.289079,1563.210842 1064.587760,1569.046148 1121.701558,1589.568893 1123.303384,1586.429055 1125.143866,1583.649750 1129.002521,1580.815064"/>
    <poly id="106474422" type="amenity.parking" color="184,184,179" fill="1" layer="-1.00" shape="1323.890068,1583.170780 1326.421559,1578.208462 1279.807384,1554.832318 1277.573231,1559.490322 1273.141519,1557.161087 1275.361732,1552.735920 1243.704032,1536.506007 1228.018889,1540.845124 1203.180910,1590.778278 1247.421384,1613.158832 1299.527655,1639.520558 1301.888182,1640.716112 1308.563498,1627.174460 1328.967140,1585.791763 1323.890068,1583.170780"/>
    <poly id="106475322" type="landuse.brownfield" color="194,194,130" fill="1" layer="-3.00" shape="1386.703014,1514.168310 1364.650651,1559.245076 1398.359345,1576.740924 1402.760526,1575.661090 1409.758675,1567.844031 1438.127535,1545.876434 1437.972957,1540.499643 1386.703014,1514.168310"/>
    <poly id="106475344" type="amenity.parking" color="184,184,179" fill="1" layer="-1.00" shape="924.294996,1672.905171 1019.442762,1485.949582 1002.459476,1487.250943 981.210172,1529.369183 971.353917,1547.736352 944.636128,1600.158571 934.160401,1616.657973 916.968764,1651.693777 924.294996,1672.905171"/>
    <poly id="106475350" type="landuse.brownfield" color="194,194,130" fill="1" layer="-3.00" shape="1358.740684,1724.290969 1359.061799,1709.721069 1287.657814,1673.342130 1224.283476,1790.869718 1147.870019,1801.085431 1172.690650,1837.814638 1182.079667,1840.619647 1224.411651,1816.607092 1264.191098,1790.906047 1308.341787,1759.883394 1358.740684,1724.290969"/>
    <poly id="106475353" type="building.yes" color="255,230,230" fill="1" layer="-1.00" shape="970.885316,1472.853621 937.434814,1456.482956 917.435883,1497.007769 950.886522,1513.378509 970.885316,1472.853621"/>
    <poly id="106475354" type="building.yes" color="255,230,230" fill="1" layer="-1.00" shape="970.885316,1472.853621 950.886522,1513.378509 981.210172,1529.369183 1002.459476,1487.250943 970.885316,1472.853621"/>
    <poly id="109034676" type="building.yes" color="255,230,230" fill="1" layer="-1.00" shape="3294.139195,694.308605 3330.571600,649.085785 3280.888657,609.378635 3244.447322,654.601049 3294.139195,694.308605"/>
    <poly id="109230466" type="landuse.retail" color="194,194,130" fill="1" layer="-3.00" shape="3343.409602,2039.266835 3151.784881,1964.535395 3154.404390,1957.509545 3174.498333,1903.670814 3176.371876,1898.538208 3184.841704,1870.024602 3264.498770,1900.338317 3303.763797,1798.946118 3364.996992,1823.095298 3364.559040,1824.195941 3364.009884,1825.549503 3356.546072,1845.114865 3354.857577,1849.441101 3348.713734,1865.826784 3343.331849,1863.822156 3341.990603,1867.167891 3341.170898,1869.214973 3333.542780,1888.232745 3331.868149,1892.326140 3323.838602,1911.979063 3318.463635,1925.816954 3335.793593,1933.266626 3318.813117,1975.239042 3363.844776,1990.331075 3343.409602,2039.266835"/>
    <poly id="109230466#1" type="shop.mall" color="237,199,255" fill="1" layer="-1.00" shape="3343.409602,2039.266835 3151.784881,1964.535395 3154.404390,1957.509545 3174.498333,1903.670814 3176.371876,1898.538208 3184.841704,1870.024602 3264.498770,1900.338317 3303.763797,1798.946118 3364.996992,1823.095298 3364.559040,1824.195941 3364.009884,1825.549503 3356.546072,1845.114865 3354.857577,1849.441101 3348.713734,1865.826784 3343.331849,1863.822156 3341.990603,1867.167891 3341.170898,1869.214973 3333.542780,1888.232745 3331.868149,1892.326140 3323.838602,1911.979063 3318.463635,1925.816954 3335.793593,1933.266626 3318.813117,1975.239042 3363.844776,1990.331075 3343.409602,2039.266835"/>
    <poly id="109230467" type="landuse.retail" color="194,194,130" fill="1" layer="-3.00" shape="3595.634440,2022.234824 3399.768969,1946.417785 3437.290710,1849.372293 3634.163967,1925.732284 3595.634440,2022.234824"/>
    <poly id="109230467#1" type="shop.mall" color="237,199,255" fill="1" layer="-1.00" shape="3595.634440,2022.234824 3399.768969,1946.417785 3437.290710,1849.372293 3634.163967,1925.732284 3595.634440,2022.234824"/>
    <poly id="111589993" type="man_made.pier" color="255,230,230" fill="1" layer="-1.00" shape="1445.315899,1371.111110 1446.797988,1368.201723 1402.223643,1345.825930 1403.523569,1343.190086 1404.686800,1342.760537 1412.537206,1347.019081 1413.181299,1345.767642 1405.129156,1341.471346 1404.806621,1340.120891 1408.038089,1333.364346 1409.061936,1332.865111 1417.535398,1337.226198 1418.128382,1335.895918 1410.122463,1331.900400 1409.524831,1330.244128 1412.902276,1323.257655 1414.419094,1322.769283 1422.489807,1327.021572 1423.340034,1325.208470 1403.712607,1315.028371 1402.738155,1316.883142 1410.365279,1320.881423 1410.798831,1322.789426 1407.717754,1329.515980 1406.759686,1329.827929 1398.775541,1325.644144 1398.058822,1326.993901 1406.183084,1331.214080 1406.298502,1332.371236 1402.857959,1339.422928 1401.619902,1339.650992 1393.782956,1335.581467 1393.213199,1336.656911 1400.998305,1340.680886 1401.511084,1341.791288 1400.071287,1344.779314 1393.066962,1341.294342 1391.574343,1344.281203 1406.768976,1351.787972 1406.959955,1353.912671 1406.407315,1354.611023 1411.550776,1357.011386 1427.887918,1371.426554 1428.592171,1372.641091 1433.482071,1374.958138 1433.618273,1374.372731 1429.288588,1369.814314 1415.679191,1357.513133 1416.987430,1356.898042 1445.315899,1371.111110"/>
    <poly id="111589995" type="man_made.pier" color="255,230,230" fill="1" layer="-1.00" shape="1454.930810,1401.620396 1478.175402,1413.534236 1478.499175,1414.829204 1484.551384,1417.960064 1478.437455,1430.426203 1479.908328,1431.224642 1486.118601,1418.782829 1492.292838,1421.971881 1493.555598,1421.422389 1553.701151,1452.244986 1549.738152,1460.628576 1564.930449,1468.257102 1565.474506,1466.748102 1553.759511,1460.794833 1552.886008,1459.265724 1557.285002,1450.680794 1559.615400,1450.443450 1570.951592,1455.999802 1571.585154,1454.825833 1560.125710,1448.867096 1559.080053,1447.156565 1563.545054,1438.373249 1565.183605,1435.156430 1569.612160,1426.427819 1571.571840,1426.226718 1583.616177,1432.020685 1584.085650,1430.698777 1572.065518,1424.605589 1571.329438,1422.835263 1575.704918,1414.116583 1577.600285,1414.036188 1589.549726,1419.739241 1590.120928,1418.597205 1578.692829,1412.816813 1577.426108,1410.746153 1581.717706,1402.236562 1584.005295,1401.942759 1595.511388,1407.780371 1596.110219,1406.583433 1570.135520,1393.455217 1569.522500,1394.496413 1578.860539,1399.597991 1579.716433,1401.126709 1575.746869,1409.010574 1574.544021,1409.239439 1564.429341,1404.209574 1563.836858,1405.117998 1573.789661,1410.299728 1574.337690,1411.810567 1570.626332,1419.167217 1569.236660,1419.480785 1559.130040,1414.484397 1558.540251,1415.670430 1568.371775,1420.760680 1569.051362,1422.296620 1565.175911,1429.505329 1563.813869,1429.763994 1553.921699,1425.027668 1553.433385,1426.004997 1563.489649,1431.288935 1563.795341,1432.605705 1555.973767,1448.231682 1553.604248,1448.645795 1510.352120,1426.588399 1510.100222,1424.429057 1513.461233,1417.786348 1514.988086,1417.242668 1524.692672,1422.097033 1525.198595,1421.120094 1515.566390,1416.178507 1515.186366,1414.638057 1518.705814,1407.199489 1520.688474,1406.754662 1530.055353,1411.745911 1530.496965,1410.889677 1521.078245,1405.852879 1520.425322,1404.306420 1524.236977,1396.796571 1526.341412,1396.421037 1535.574273,1401.098472 1536.244026,1399.880895 1514.095643,1388.579770 1513.531525,1389.799672 1521.706034,1394.142959 1521.990452,1396.025466 1518.624813,1402.879015 1516.740699,1403.248297 1508.821729,1399.698878 1508.348573,1400.787559 1516.006388,1404.597675 1516.940522,1406.172532 1513.083620,1413.736892 1511.012921,1413.780105 1503.416721,1409.971341 1502.978289,1411.082990 1510.514089,1414.834914 1511.546530,1416.744997 1508.186984,1423.321126 1506.215088,1424.476717 1468.580863,1405.285015 1468.350987,1403.325993 1472.687691,1394.773037 1474.175664,1394.395039 1482.412022,1398.328952 1483.086675,1397.289120 1474.854473,1393.166564 1474.272719,1391.588362 1477.300458,1385.682161 1478.966447,1385.219267 1486.928922,1389.191552 1487.594283,1388.173718 1479.475062,1384.120267 1478.912136,1382.486970 1481.996598,1376.404385 1483.541297,1375.850002 1491.717000,1380.137836 1492.542029,1378.268662 1472.289861,1368.052775 1471.401003,1369.620786 1479.509206,1374.173595 1479.820019,1375.657012 1475.058315,1381.913590 1467.360924,1377.902724 1466.769164,1378.777851 1474.431103,1383.198712 1475.437119,1384.708545 1472.292738,1390.712094 1470.399087,1391.114462 1462.730298,1387.004304 1461.998180,1388.253808 1469.818090,1392.300683 1470.780579,1393.787354 1466.368315,1402.571787 1464.626763,1403.266157 1456.370109,1399.054227 1454.930810,1401.620396"/>
    <poly id="113434071" type="landuse.retail" color="194,194,130" fill="1" layer="-3.00" shape="2982.833271,2322.214086 2842.786015,2265.987494 2836.600503,2212.485411 2812.245999,2214.495409 2799.558912,2107.473134 2629.885436,2128.164068 2660.944774,2436.078346 2938.529897,2403.567078 2982.833271,2322.214086"/>
    <poly id="113434071#1" type="shop.mall" color="237,199,255" fill="1" layer="-1.00" shape="2982.833271,2322.214086 2842.786015,2265.987494 2836.600503,2212.485411 2812.245999,2214.495409 2799.558912,2107.473134 2629.885436,2128.164068 2660.944774,2436.078346 2938.529897,2403.567078 2982.833271,2322.214086"/>
    <poly id="114042520" type="building.yes" color="255,230,230" fill="1" layer="-1.00" shape="2937.378539,1624.487669 2955.443235,1631.321444 2969.702590,1594.230596 2975.239440,1579.452777 2981.895674,1581.973983 2983.287593,1578.329654 2995.703848,1545.772498 2970.983121,1536.417593 2937.378539,1624.487669"/>
    <poly id="114042520#1" type="man_made.telephone_exchange" color="255,230,230" fill="1" layer="-1.00" shape="2937.378539,1624.487669 2955.443235,1631.321444 2969.702590,1594.230596 2975.239440,1579.452777 2981.895674,1581.973983 2983.287593,1578.329654 2995.703848,1545.772498 2970.983121,1536.417593 2937.378539,1624.487669"/>
    <poly id="114114375" type="building.yes" color="255,230,230" fill="1" layer="-1.00" shape="3169.890287,2044.231242 3237.986251,2071.217652 3254.020109,2031.078745 3203.083628,2010.894768 3195.098992,2030.892724 3192.881937,2036.428610 3175.722462,2029.637376 3169.890287,2044.231242"/>
    <poly id="117894663" type="building.yes" color="255,230,230" fill="1" layer="-1.00" shape="3403.707424,1590.666236 3396.450078,1610.469262 3397.497527,1610.902859 3371.933277,1681.442159 3384.098055,1686.625417 3388.278844,1688.370711 3392.075671,1689.952209 3393.384572,1690.513623 3395.648931,1691.284591 3399.495823,1692.589630 3407.032358,1695.140764 3432.264266,1630.544736 3434.804999,1631.565957 3441.661454,1634.202163 3451.115145,1610.605703 3428.082121,1600.567358 3403.707424,1590.666236"/>
    <poly id="117894663#1" type="landuse.retail" color="194,194,130" fill="1" layer="-3.00" shape="3403.707424,1590.666236 3396.450078,1610.469262 3397.497527,1610.902859 3371.933277,1681.442159 3384.098055,1686.625417 3388.278844,1688.370711 3392.075671,1689.952209 3393.384572,1690.513623 3395.648931,1691.284591 3399.495823,1692.589630 3407.032358,1695.140764 3432.264266,1630.544736 3434.804999,1631.565957 3441.661454,1634.202163 3451.115145,1610.605703 3428.082121,1600.567358 3403.707424,1590.666236"/>
    <poly id="117894663#2" type="shop.department_store" color="237,199,255" fill="1" layer="-1.00" shape="3403.707424,1590.666236 3396.450078,1610.469262 3397.497527,1610.902859 3371.933277,1681.442159 3384.098055,1686.625417 3388.278844,1688.370711 3392.075671,1689.952209 3393.384572,1690.513623 3395.648931,1691.284591 3399.495823,1692.589630 3407.032358,1695.140764 3432.264266,1630.544736 3434.804999,1631.565957 3441.661454,1634.202163 3451.115145,1610.605703 3428.082121,1600.567358 3403.707424,1590.666236"/>
    <poly id="117894664" type="building.retail" color="255,230,230" fill="1" layer="-1.00" shape="3489.754856,1625.102724 3477.492654,1620.350471 3472.161254,1634.633468 3484.259939,1639.615305 3489.754856,1625.102724"/>
    <poly id="117894665" type="building.retail" color="255,230,230" fill="1" layer="-1.00" shape="3477.492654,1620.350471 3472.546963,1618.544152 3471.575699,1618.656217 3464.875062,1635.551629 3470.867975,1637.802635 3472.161254,1634.633468 3477.492654,1620.350471"/>
    <poly id="117894665#1" type="shop.jewelry" color="237,199,255" fill="1" layer="-1.00" shape="3477.492654,1620.350471 3472.546963,1618.544152 3471.575699,1618.656217 3464.875062,1635.551629 3470.867975,1637.802635 3472.161254,1634.633468 3477.492654,1620.350471"/>
    <poly id="117894666" type="building.yes" color="255,230,230" fill="1" layer="-1.00" shape="3436.132921,1674.103976 3439.677897,1665.011062 3443.640151,1655.361041 3448.465388,1642.887740 3486.668467,1657.219828 3474.081177,1688.819128 3436.132921,1674.103976"/>
    <poly id="117894667" type="building.retail" color="255,230,230" fill="1" layer="-1.00" shape="3471.575699,1618.656217 3451.115145,1610.605703 3441.661454,1634.202163 3439.617478,1639.486531 3448.465388,1642.887740 3452.923974,1631.072562 3464.875062,1635.551629 3471.575699,1618.656217"/>
    <poly id="117894667#1" type="shop.clothes" color="237,199,255" fill="1" layer="-1.00" shape="3471.575699,1618.656217 3451.115145,1610.605703 3441.661454,1634.202163 3439.617478,1639.486531 3448.465388,1642.887740 3452.923974,1631.072562 3464.875062,1635.551629 3471.575699,1618.656217"/>
    <poly id="117903559" type="building.yes" color="255,230,230" fill="1" layer="-1.00" shape="3465.316750,1543.715433 3462.391842,1542.541526 3459.116257,1541.293367 3445.722117,1575.162035 3481.703682,1589.168218 3494.555095,1556.353459 3499.856367,1558.411753 3521.843723,1500.394854 3487.869443,1487.653755 3465.316750,1543.715433"/>
    <poly id="117903559#1" type="landuse.retail" color="194,194,130" fill="1" layer="-3.00" shape="3465.316750,1543.715433 3462.391842,1542.541526 3459.116257,1541.293367 3445.722117,1575.162035 3481.703682,1589.168218 3494.555095,1556.353459 3499.856367,1558.411753 3521.843723,1500.394854 3487.869443,1487.653755 3465.316750,1543.715433"/>
    <poly id="117903560" type="building.retail" color="255,230,230" fill="1" layer="-1.00" shape="3536.569851,1527.482162 3538.705052,1521.644667 3519.916193,1514.085892 3517.594179,1520.008130 3536.569851,1527.482162"/>
    <poly id="117903563" type="building.retail" color="255,230,230" fill="1" layer="-1.00" shape="3538.705052,1521.644667 3543.219381,1510.496775 3524.439348,1502.938201 3519.916193,1514.085892 3538.705052,1521.644667"/>
    <poly id="117903565" type="building.yes" color="255,230,230" fill="1" layer="-1.00" shape="3359.378248,1540.618664 3369.954755,1511.984302 3362.095732,1508.882100 3350.958938,1537.359916 3359.378248,1540.618664"/>
    <poly id="117903568" type="building.retail" color="255,230,230" fill="1" layer="-1.00" shape="3527.173726,1552.090228 3531.949970,1539.027420 3513.209303,1531.680618 3508.556276,1544.746099 3527.173726,1552.090228"/>
    <poly id="117903570" type="building.yes" color="255,230,230" fill="1" layer="-1.00" shape="3414.580272,1572.274215 3410.686406,1566.660627 3409.641727,1568.525182 3409.302615,1570.749270 3410.041416,1572.008780 3411.201950,1572.911118 3412.694152,1573.143469 3414.580272,1572.274215"/>
    <poly id="117903570#1" type="tourism.information" color="207,245,201" fill="1" layer="-2.00" shape="3414.580272,1572.274215 3410.686406,1566.660627 3409.641727,1568.525182 3409.302615,1570.749270 3410.041416,1572.008780 3411.201950,1572.911118 3412.694152,1573.143469 3414.580272,1572.274215"/>
    <poly id="117903571" type="building.retail" color="255,230,230" fill="1" layer="-1.00" shape="3519.978573,1571.883598 3527.173726,1552.090228 3508.556276,1544.746099 3501.346238,1564.816678 3519.978573,1571.883598"/>
    <poly id="117903572" type="building.retail" color="255,230,230" fill="1" layer="-1.00" shape="3531.949970,1539.027420 3536.569851,1527.482162 3517.594179,1520.008130 3513.209303,1531.680618 3531.949970,1539.027420"/>
    <poly id="11914778" type="building.yes" color="255,230,230" fill="1" layer="-1.00" shape="3509.169167,858.363541 3530.727187,866.482338 3534.246472,864.616163 3534.637228,865.679353 3540.896786,862.940304 3544.096721,854.306122 3541.069557,848.134154 3540.396944,848.286032 3539.210900,845.728970 3543.981474,843.423767 3550.546215,845.676103 3551.684291,845.179101 3558.593401,847.794191 3559.783083,847.353822 3566.752364,850.036827 3568.848013,848.839053 3570.398497,845.175892 3575.356925,831.817288 3573.545106,828.069804 3553.897833,821.180632 3534.399267,814.339057 3532.821269,810.774286 3527.665052,808.952282 3522.777542,810.966279 3516.365902,829.178030 3505.717806,857.111554 3509.169167,858.363541"/>
    <poly id="11914778#1" type="tourism.hotel" color="207,245,201" fill="1" layer="-2.00" shape="3509.169167,858.363541 3530.727187,866.482338 3534.246472,864.616163 3534.637228,865.679353 3540.896786,862.940304 3544.096721,854.306122 3541.069557,848.134154 3540.396944,848.286032 3539.210900,845.728970 3543.981474,843.423767 3550.546215,845.676103 3551.684291,845.179101 3558.593401,847.794191 3559.783083,847.353822 3566.752364,850.036827 3568.848013,848.839053 3570.398497,845.175892 3575.356925,831.817288 3573.545106,828.069804 3553.897833,821.180632 3534.399267,814.339057 3532.821269,810.774286 3527.665052,808.952282 3522.777542,810.966279 3516.365902,829.178030 3505.717806,857.111554 3509.169167,858.363541"/>
    <poly id="123299575" type="building.yes" color="255,230,230" fill="1" layer="-1.00" shape="3706.264277,1679.174573 3723.961102,1685.943107 3733.275941,1661.810460 3715.579405,1655.030847 3706.264277,1679.174573"/>
    <poly id="12477419" type="building.yes" color="255,230,230" fill="1" layer="-1.00" shape="3323.495122,1112.124936 3329.960391,1114.908160 3337.132065,1117.606864 3357.293901,1125.562418 3375.037317,1081.241903 3337.475213,1066.323591 3333.144107,1077.142319 3336.898314,1078.645218 3323.495122,1112.124936"/>
    <poly id="12558458" type="tourism.attraction" color="207,245,201" fill="0" layer="-2.00" shape="3522.896836,1243.376070 3535.484738,1211.310456 3541.452793,1196.086534"/>
    <poly id="129239407" type="amenity.community_centre" color="237,199,199" fill="1" layer="-1.00" shape="1913.751957,910.326746 1917.872687,899.948115 1909.211723,896.515977 1903.754431,910.806441 1904.146966,925.403111 1916.965276,925.207448 1916.906574,920.665436 1923.567453,920.534273 1923.463212,910.851030 1916.777396,910.915033 1916.765133,910.270847 1913.751957,910.326746"/>
    <poly id="129239407#1" type="building.yes" color="255,230,230" fill="1" layer="-1.00" shape="1913.751957,910.326746 1917.872687,899.948115 1909.211723,896.515977 1903.754431,910.806441 1904.146966,925.403111 1916.965276,925.207448 1916.906574,920.665436 1923.567453,920.534273 1923.463212,910.851030 1916.777396,910.915033 1916.765133,910.270847 1913.751957,910.326746"/>
    <poly id="13127644" type="amenity.place_of_worship" color="237,199,199" fill="1" layer="-1.00" shape="3671.647897,1296.817149 3672.328973,1297.087313 3690.457108,1304.231720 3695.862371,1289.361817 3700.826953,1291.101811 3706.120779,1275.685487 3701.826677,1273.893472 3715.909390,1238.263143 3718.644899,1239.233010 3723.856378,1225.979748 3712.600969,1221.527266 3698.403149,1215.900558 3693.137126,1229.230332 3696.395249,1230.466922 3682.690481,1266.938086 3678.012922,1264.960085 3675.834101,1270.785558 3673.188568,1277.822079 3672.243931,1280.354952 3677.164006,1282.116197 3671.647897,1296.817149"/>
    <poly id="13127644#1" type="building.yes" color="255,230,230" fill="1" layer="-1.00" shape="3671.647897,1296.817149 3672.328973,1297.087313 3690.457108,1304.231720 3695.862371,1289.361817 3700.826953,1291.101811 3706.120779,1275.685487 3701.826677,1273.893472 3715.909390,1238.263143 3718.644899,1239.233010 3723.856378,1225.979748 3712.600969,1221.527266 3698.403149,1215.900558 3693.137126,1229.230332 3696.395249,1230.466922 3682.690481,1266.938086 3678.012922,1264.960085 3675.834101,1270.785558 3673.188568,1277.822079 3672.243931,1280.354952 3677.164006,1282.116197 3671.647897,1296.817149"/>
    <poly id="131724920" type="building.yes" color="255,230,230" fill="1" layer="-1.00" shape="4228.868836,1666.891233 4219.158244,1663.050299 4216.317246,1670.182648 4212.737005,1668.761662 4199.421145,1703.221476 4212.859629,1708.175768 4228.868836,1666.891233"/>