<?xml version="1.0" encoding="UTF-8"?>

<!-- generated on Sun Mar  1 15:31:32 2020 by Eclipse SUMO duarouter Version 1.2.0
<configuration xmlns:xsi="http://www.w3.org/2001/XMLSchema-instance" xsi:noNamespaceSchemaLocation="http://sumo.dlr.de/xsd/duarouterConfiguration.xsd">

    <input>
        <net-file value="osm.net.xml"/>
        <route-files value="osm.passenger.trips.xml"/>
    </input>

    <output>
        <output-file value="osm.passenger.trips.xml.tmp"/>
        <write-trips value="true"/>
    </output>

    <time>
        <begin value="0"/>
        <end value="3600.0"/>
    </time>

    <report>
        <no-warnings value="true"/>
        <ignore-errors value="true"/>
        <no-step-log value="true"/>
    </report>

</configuration>
-->

<routes xmlns:xsi="http://www.w3.org/2001/XMLSchema-instance" xsi:noNamespaceSchemaLocation="http://sumo.dlr.de/xsd/routes_file.xsd">
    <vType id="veh_passenger" vClass="passenger"/>
    <trip id="veh0" type="veh_passenger" depart="0.00" departLane="best" from="4306021#21" to="-208642577#5"/>
    <trip id="veh1" type="veh_passenger" depart="2.33" departLane="best" from="198989378#9" to="198005097#6"/>
    <trip id="veh2" type="veh_passenger" depart="4.66" departLane="best" departSpeed="max" from="5118205#0" to="46297971#1"/>
    <trip id="veh3" type="veh_passenger" depart="6.99" departLane="best" from="71079797#3" to="-712160016"/>
    <trip id="veh4" type="veh_passenger" depart="9.32" departLane="best" from="208920309#2" to="-208643582#7"/>
    <trip id="veh5" type="veh_passenger" depart="11.65" departLane="best" from="198005100#2" to="279989317"/>
    <trip id="veh7" type="veh_passenger" depart="16.30" departLane="best" from="4308541#8" to="30179552#1"/>
    <trip id="veh8" type="veh_passenger" depart="18.63" departLane="best" from="198005100#5" to="329659976#0"/>
    <trip id="veh9" type="veh_passenger" depart="20.96" departLane="best" from="581959669#3" to="-13908118#1"/>
    <trip id="veh10" type="veh_passenger" depart="23.29" departLane="best" from="581959667#1" to="481307371"/>
    <trip id="veh11" type="veh_passenger" depart="25.62" departLane="best" from="207830040#7" to="13858295#2"/>
    <trip id="veh12" type="veh_passenger" depart="27.95" departLane="best" from="716689904#8" to="207831528#7"/>
    <trip id="veh13" type="veh_passenger" depart="30.28" departLane="best" from="10541785#1" to="106475584#4"/>
    <trip id="veh14" type="veh_passenger" depart="32.61" departLane="best" from="658620788#1" to="37696593#5"/>
    <trip id="veh15" type="veh_passenger" depart="34.94" departLane="best" from="581959667#3" to="510732895#5"/>
    <trip id="veh16" type="veh_passenger" depart="37.27" departLane="best" from="295476230#7" to="735135951#0"/>
    <trip id="veh17" type="veh_passenger" depart="39.59" departLane="best" from="208554968#1" to="314394242#2"/>
    <trip id="veh18" type="veh_passenger" depart="41.92" departLane="best" from="616097570#5" to="386419596#7"/>
    <trip id="veh19" type="veh_passenger" depart="44.25" departLane="best" from="664287432#2" to="323916050#7"/>
    <trip id="veh20" type="veh_passenger" depart="46.58" departLane="best" from="495981559" to="-284676479#3"/>
    <trip id="veh22" type="veh_passenger" depart="51.24" departLane="best" from="-56730487#0" to="198005100#6"/>
    <trip id="veh23" type="veh_passenger" depart="53.57" departLane="best" from="108715490#4" to="198989378#3"/>
    <trip id="veh25" type="veh_passenger" depart="58.23" departLane="best" from="208506442#11" to="191523280#6"/>
    <trip id="veh26" type="veh_passenger" depart="60.56" departLane="best" from="198874545#2" to="715211389#6"/>
    <trip id="veh27" type="veh_passenger" depart="62.89" departLane="best" from="4308541#3" to="386416108#3"/>
    <trip id="veh28" type="veh_passenger" depart="65.21" departLane="best" from="17037397#0" to="510732895#4"/>
    <trip id="veh29" type="veh_passenger" depart="67.54" departLane="best" from="14720224#0" to="208642574#0"/>
    <trip id="veh30" type="veh_passenger" depart="69.87" departLane="best" departSpeed="max" from="770389939" to="4306021#32"/>
    <trip id="veh31" type="veh_passenger" depart="72.20" departLane="best" from="65057040#2" to="569758998#1"/>
    <trip id="veh33" type="veh_passenger" depart="76.86" departLane="best" from="207277766#1" to="198874544#6"/>
    <trip id="veh35" type="veh_passenger" depart="81.52" departLane="best" from="4308557#4" to="208677469#3"/>
    <trip id="veh36" type="veh_passenger" depart="83.85" departLane="best" from="712160042#1" to="249652292#0"/>
    <trip id="veh37" type="veh_passenger" depart="86.18" departLane="best" from="198874544#7" to="198559866#1"/>
    <trip id="veh38" type="veh_passenger" depart="88.50" departLane="best" from="325560842#2" to="711952033"/>
    <trip id="veh39" type="veh_passenger" depart="90.83" departLane="best" from="208643587#2" to="197979803#0"/>
    <trip id="veh40" type="veh_passenger" depart="93.16" departLane="best" from="97795760#0" to="279989324#2"/>
    <trip id="veh41" type="veh_passenger" depart="95.49" departLane="best" from="-746789182#0" to="-28519847#0"/>
    <trip id="veh42" type="veh_passenger" depart="97.82" departLane="best" departSpeed="max" from="131724936#0" to="39451704#15"/>
    <trip id="veh43" type="veh_passenger" depart="100.15" departLane="best" from="581717496#1" to="217383023#2"/>
    <trip id="veh44" type="veh_passenger" depart="102.48" departLane="best" from="-44158377#4" to="208642575#1"/>
    <trip id="veh45" type="veh_passenger" depart="104.81" departLane="best" from="8095795#2" to="295476229"/>
    <trip id="veh46" type="veh_passenger" depart="107.14" departLane="best" from="734406096#16" to="664287432#1"/>
    <trip id="veh47" type="veh_passenger" depart="109.47" departLane="best" from="-14716364#1" to="507137553#1"/>
    <trip id="veh49" type="veh_passenger" depart="114.12" departLane="best" from="198874545#2" to="4306021#35"/>
    <trip id="veh51" type="veh_passenger" depart="118.78" departLane="best" departSpeed="max" from="23212198" to="716689903#1"/>
    <trip id="veh52" type="veh_passenger" depart="121.11" departLane="best" from="68861814#2" to="198737806#1"/>
    <trip id="veh53" type="veh_passenger" depart="123.44" departLane="best" from="27462661#0" to="16862739#0"/>
    <trip id="veh54" type="veh_passenger" depart="125.77" departLane="best" from="712157735" to="672401944#1"/>
    <trip id="veh55" type="veh_passenger" depart="128.10" departLane="best" departSpeed="max" from="207128341" to="4306021#3"/>
    <trip id="veh56" type="veh_passenger" depart="130.43" departLane="best" from="378406887#4" to="13757666#13"/>
    <trip id="veh57" type="veh_passenger" depart="132.76" departLane="best" from="569443031#7" to="296383969#0"/>
    <trip id="veh58" type="veh_passenger" depart="135.09" departLane="best" departSpeed="max" from="569718745#0" to="295476230#0"/>
    <trip id="veh59" type="veh_passenger" depart="137.42" departLane="best" from="-106475328#0" to="207516093#4"/>
    <trip id="veh60" type="veh_passenger" depart="139.74" departLane="best" from="-207277353#1" to="715201470#3"/>
    <trip id="veh61" type="veh_passenger" depart="142.07" departLane="best" from="69976421#0" to="622561168"/>
    <trip id="veh62" type="veh_passenger" depart="144.40" departLane="best" from="207128343#0" to="-370664617#1"/>
    <trip id="veh63" type="veh_passenger" depart="146.73" departLane="best" from="68861971#0" to="715581287#0"/>
    <trip id="veh65" type="veh_passenger" depart="151.39" departLane="best" from="-470925303#3" to="569455487#1"/>
    <trip id="veh66" type="veh_passenger" depart="153.72" departLane="best" from="569443033#1" to="134621272#4"/>
    <trip id="veh67" type="veh_passenger" depart="156.05" departLane="best" from="25428380#1" to="30179580#3"/>
    <trip id="veh68" type="veh_passenger" depart="158.38" departLane="best" from="198874544#7" to="672401944#1"/>
    <trip id="veh70" type="veh_passenger" depart="163.04" departLane="best" from="296383691#5" to="510732895#6"/>
    <trip id="veh71" type="veh_passenger" depart="165.36" departLane="best" from="197845905#10" to="207277770#1"/>
    <trip id="veh72" type="veh_passenger" depart="167.69" departLane="best" from="8095795#1" to="4308557#16"/>
    <trip id="veh73" type="veh_passenger" depart="170.02" departLane="best" from="218688442#1" to="284935833#9"/>
    <trip id="veh74" type="veh_passenger" depart="172.35" departLane="best" from="13305896#1" to="198005098#1"/>
    <trip id="veh75" type="veh_passenger" depart="174.68" departLane="best" from="207830036#1" to="329659974#3"/>
    <trip id="veh82" type="veh_passenger" depart="190.98" departLane="best" from="715211380#2" to="316166609#9"/>
    <trip id="veh83" type="veh_passenger" depart="193.31" departLane="best" from="25425328#2" to="581717495#1"/>
    <trip id="veh84" type="veh_passenger" depart="195.64" departLane="best" from="581959669#0" to="185403361#2"/>
    <trip id="veh85" type="veh_passenger" depart="197.97" departLane="best" from="106475584#2" to="218688446#4"/>
    <trip id="veh89" type="veh_passenger" depart="207.29" departLane="best" from="208677469#3" to="207831778#3"/>
    <trip id="veh90" type="veh_passenger" depart="209.62" departLane="best" from="664287432#2" to="198559867#0"/>
    <trip id="veh92" type="veh_passenger" depart="214.27" departLane="best" from="208920309#2" to="198989378#7"/>
    <trip id="veh93" type="veh_passenger" depart="216.60" departLane="best" from="198715273#2" to="715181642#4"/>
    <trip id="veh95" type="veh_passenger" depart="221.26" departLane="best" from="30179580#2" to="-309028287"/>
    <trip id="veh96" type="veh_passenger" depart="223.59" departLane="best" from="97795760#3" to="62260153#2"/>
    <trip id="veh97" type="veh_passenger" depart="225.92" departLane="best" from="734406096#13" to="715201470#16"/>
    <trip id="veh98" type="veh_passenger" depart="228.25" departLane="best" from="658620790#2" to="14716364#2"/>
    <trip id="veh99" type="veh_passenger" depart="230.58" departLane="best" from="27007175" to="197845905#2"/>
    <trip id="veh101" type="veh_passenger" depart="235.24" departLane="best" from="208554968#2" to="767384958#3"/>
    <trip id="veh102" type="veh_passenger" depart="237.57" departLane="best" from="198874544#7" to="581717495#0"/>
    <trip id="veh103" type="veh_passenger" depart="239.89" departLane="best" departSpeed="max" from="23212198" to="217383023#2"/>
    <trip id="veh104" type="veh_passenger" depart="242.22" departLane="best" from="716689904#8" to="8095795#1"/>
    <trip id="veh105" type="veh_passenger" depart="244.55" departLane="best" departSpeed="max" from="314394242#0" to="505256328#4"/>
    <trip id="veh106" type="veh_passenger" depart="246.88" departLane="best" from="13911192#2" to="206507202#3"/>
    <trip id="veh109" type="veh_passenger" depart="253.87" departLane="best" from="27508477#0" to="658620806#1"/>
    <trip id="veh111" type="veh_passenger" depart="258.53" departLane="best" from="-56730487#1" to="179614831#2"/>
    <trip id="veh114" type="veh_passenger" depart="265.51" departLane="best" departSpeed="max" from="71079797#0" to="198559866#1"/>
    <trip id="veh115" type="veh_passenger" depart="267.84" departLane="best" from="33803212" to="386570592#2"/>
    <trip id="veh117" type="veh_passenger" depart="272.50" departLane="best" from="286827105#1" to="715211380#2"/>
    <trip id="veh119" type="veh_passenger" depart="277.16" departLane="best" from="45368568#1" to="207128342#2"/>
    <trip id="veh120" type="veh_passenger" depart="279.49" departLane="best" from="207277766#2" to="55949470#4"/>
    <trip id="veh122" type="veh_passenger" depart="284.15" departLane="best" from="97795760#0" to="8095795#2"/>
    <trip id="veh124" type="veh_passenger" depart="288.81" departLane="best" from="198874544#7" to="715211379#7"/>
    <trip id="veh125" type="veh_passenger" depart="291.13" departLane="best" from="208505379#5" to="13911192#1"/>
    <trip id="veh126" type="veh_passenger" depart="293.46" departLane="best" from="386416108#1" to="8038155#1"/>
    <trip id="veh127" type="veh_passenger" depart="295.79" departLane="best" from="4308557#21" to="-142569754#2"/>
    <trip id="veh128" type="veh_passenger" depart="298.12" departLane="best" from="60725476#0" to="207128342#1"/>
    <trip id="veh129" type="veh_passenger" depart="300.45" departLane="best" from="44159850" to="715211394#15"/>
    <trip id="veh130" type="veh_passenger" depart="302.78" departLane="best" from="135951294#4" to="13305896#0"/>
    <trip id="veh131" type="veh_passenger" depart="305.11" departLane="best" from="131724932#1" to="314394242#6"/>
    <trip id="veh132" type="veh_passenger" depart="307.44" departLane="best" from="198989372#3" to="378406887#4"/>
    <trip id="veh134" type="veh_passenger" depart="312.10" departLane="best" from="39947804#1" to="198737812#1"/>
    <trip id="veh135" type="veh_passenger" depart="314.43" departLane="best" from="27007193#0" to="711989785#1"/>
    <trip id="veh136" type="veh_passenger" depart="316.75" departLane="best" from="658620787#1" to="10586814#1"/>
    <trip id="veh138" type="veh_passenger" depart="321.41" departLane="best" from="-13309253#0" to="569718744#1"/>
    <trip id="veh139" type="veh_passenger" depart="323.74" departLane="best" from="4306021#10" to="198737801#2"/>
    <trip id="veh142" type="veh_passenger" depart="330.73" departLane="best" from="-49961631#5" to="68861815#2"/>
    <trip id="veh143" type="veh_passenger" depart="333.06" departLane="best" from="711989785#1" to="30179566#1"/>
    <trip id="veh144" type="veh_passenger" depart="335.39" departLane="best" from="62106235" to="325560847#3"/>
    <trip id="veh145" type="veh_passenger" depart="337.72" departLane="best" from="135953468#5" to="134621272#1"/>
    <trip id="veh146" type="veh_passenger" depart="340.04" departLane="best" from="207128343#2" to="711952035"/>
    <trip id="veh147" type="veh_passenger" depart="342.37" departLane="best" from="581959650#1" to="664287432#1"/>
    <trip id="veh148" type="veh_passenger" depart="344.70" departLane="best" from="711989781#1" to="191523280#6"/>
    <trip id="veh150" type="veh_passenger" depart="349.36" departLane="best" from="569758998#0" to="68861971#0"/>
    <trip id="veh151" type="veh_passenger" depart="351.69" departLane="best" from="208678438#0" to="386878913#1"/>
    <trip id="veh152" type="veh_passenger" depart="354.02" departLane="best" from="13911192#2" to="715201470#31"/>
    <trip id="veh153" type="veh_passenger" depart="356.35" departLane="best" from="664287434#1" to="735338668#6"/>
    <trip id="veh154" type="veh_passenger" depart="358.68" departLane="best" from="581959669#5" to="68861815#2"/>
    <trip id="veh155" type="veh_passenger" depart="361.01" departLane="best" from="-208642577#4" to="540986973#0"/>
    <trip id="veh156" type="veh_passenger" depart="363.34" departLane="best" from="207516093#8" to="715201470#5"/>
    <trip id="veh157" type="veh_passenger" depart="365.66" departLane="best" from="581959669#5" to="198874544#2"/>
    <trip id="veh158" type="veh_passenger" depart="367.99" departLane="best" from="580628690#0" to="131724933#1"/>
    <trip id="veh160" type="veh_passenger" depart="372.65" departLane="best" from="198005395#1" to="61532904#4"/>
    <trip id="veh162" type="veh_passenger" depart="377.31" departLane="best" from="581959643#2" to="198005098#3"/>
    <trip id="veh163" type="veh_passenger" depart="379.64" departLane="best" from="-208554968#2" to="187918254#3"/>
    <trip id="veh164" type="veh_passenger" depart="381.97" departLane="best" from="207516091#2" to="664287434#1"/>
    <trip id="veh165" type="veh_passenger" depart="384.30" departLane="best" from="734406096#10" to="198989380#2"/>
    <trip id="veh166" type="veh_passenger" depart="386.63" departLane="best" from="756380309#1" to="295476230#9"/>
    <trip id="veh167" type="veh_passenger" depart="388.96" departLane="best" from="715211394#13" to="13305896#0"/>
    <trip id="veh168" type="veh_passenger" depart="391.28" departLane="best" from="734406096#15" to="16862739#0"/>
    <trip id="veh169" type="veh_passenger" depart="393.61" departLane="best" from="734406094#10" to="198874544#0"/>
    <trip id="veh171" type="veh_passenger" depart="398.27" departLane="best" from="5072825#9" to="207277772#1"/>
    <trip id="veh172" type="veh_passenger" depart="400.60" departLane="best" from="37624564#3" to="28295301#0"/>
    <trip id="veh173" type="veh_passenger" depart="402.93" departLane="best" from="208642573#1" to="323916050#5"/>
    <trip id="veh174" type="veh_passenger" depart="405.26" departLane="best" from="198737797#2" to="5035772#3"/>
    <trip id="veh175" type="veh_passenger" depart="407.59" departLane="best" from="-11565283#1" to="715201470#13"/>
    <trip id="veh177" type="veh_passenger" depart="412.25" departLane="best" from="208489244#10" to="-485830402#1"/>
    <trip id="veh179" type="veh_passenger" depart="416.90" departLane="best" from="207277353#1" to="658620788#1"/>
    <trip id="veh180" type="veh_passenger" depart="419.23" departLane="best" from="505256328#1" to="207128342#2"/>
    <trip id="veh181" type="veh_passenger" depart="421.56" departLane="best" from="207277347#0" to="208793255#4"/>
    <trip id="veh182" type="veh_passenger" depart="423.89" departLane="best" from="208677469#3" to="206507202#3"/>
    <trip id="veh184" type="veh_passenger" depart="428.55" departLane="best" from="715211394#19" to="46297971#1"/>
    <trip id="veh185" type="veh_passenger" depart="430.88" departLane="best" from="711989783#2" to="386419596#3"/>
    <trip id="veh186" type="veh_passenger" depart="433.21" departLane="best" departSpeed="max" from="207128341" to="30179566#6"/>
    <trip id="veh188" type="veh_passenger" depart="437.87" departLane="best" departSpeed="max" from="217383024#0" to="324604637#0"/>
    <trip id="veh189" type="veh_passenger" depart="440.20" departLane="best" from="4308557#25" to="25427595#4"/>
    <trip id="veh191" type="veh_passenger" depart="444.85" departLane="best" from="25425692#0" to="711989781#1"/>
    <trip id="veh192" type="veh_passenger" depart="447.18" departLane="best" from="581959650#1" to="156927092#1"/>
    <trip id="veh193" type="veh_passenger" depart="449.51" departLane="best" from="-676998218#1" to="284935833#2"/>
    <trip id="veh195" type="veh_passenger" depart="454.17" departLane="best" from="60725476#1" to="55949470#2"/>
    <trip id="veh196" type="veh_passenger" depart="456.50" departLane="best" from="45368568#4" to="198005098#1"/>
    <trip id="veh197" type="veh_passenger" depart="458.83" departLane="best" from="191658734#5" to="-208642577#2"/>
    <trip id="veh198" type="veh_passenger" depart="461.16" departLane="best" from="658620795#1" to="-49961631#1"/>
    <trip id="veh199" type="veh_passenger" depart="463.49" departLane="best" from="208793255#13" to="39451705#0"/>
    <trip id="veh200" type="veh_passenger" depart="465.81" departLane="best" from="191505321#5" to="4768714#8"/>
    <trip id="veh201" type="veh_passenger" depart="468.14" departLane="best" from="27008379#2" to="198559565#4"/>
    <trip id="veh202" type="veh_passenger" depart="470.47" departLane="best" from="4308557#9" to="-13907174#2"/>
    <trip id="veh203" type="veh_passenger" depart="472.80" departLane="best" from="556168188#0" to="569718744#1"/>
    <trip id="veh204" type="veh_passenger" depart="475.13" departLane="best" from="131724930" to="217383025#0"/>
    <trip id="veh205" type="veh_passenger" depart="477.46" departLane="best" from="172593024#0" to="721874234"/>
    <trip id="veh206" type="veh_passenger" depart="479.79" departLane="best" from="284935833#10" to="-30179549"/>
    <trip id="veh207" type="veh_passenger" depart="482.12" departLane="best" from="198715273#1" to="658620790#1"/>
    <trip id="veh208" type="veh_passenger" depart="484.45" departLane="best" departSpeed="max" from="23212198" to="581959669#0"/>
    <trip id="veh209" type="veh_passenger" depart="486.78" departLane="best" from="448300741#0" to="8038155#3"/>
    <trip id="veh210" type="veh_passenger" depart="489.11" departLane="best" from="33803214#2" to="715611130#1"/>
    <trip id="veh211" type="veh_passenger" depart="491.43" departLane="best" from="71079797#2" to="386419596#16"/>
    <trip id="veh213" type="veh_passenger" depart="496.09" departLane="best" from="616097571#1" to="30179566#6"/>
    <trip id="veh214" type="veh_passenger" depart="498.42" departLane="best" from="711952035" to="550361772#8"/>
    <trip id="veh216" type="veh_passenger" depart="503.08" departLane="best" from="198715025" to="4306021#26"/>
    <trip id="veh217" type="veh_passenger" depart="505.41" departLane="best" from="569443033#1" to="286827633#0"/>
    <trip id="veh218" type="veh_passenger" depart="507.74" departLane="best" from="39451666" to="198874547"/>
    <trip id="veh219" type="veh_passenger" depart="510.07" departLane="best" from="-5118207#3" to="199429376#8"/>
    <trip id="veh220" type="veh_passenger" depart="512.40" departLane="best" from="198989372#1" to="207298914#1"/>
    <trip id="veh221" type="veh_passenger" depart="514.73" departLane="best" from="296383692" to="135951295#2"/>
    <trip id="veh224" type="veh_passenger" depart="521.71" departLane="best" from="208678438#3" to="30179549"/>
    <trip id="veh225" type="veh_passenger" depart="524.04" departLane="best" from="208793255#7" to="191523280#0"/>
    <trip id="veh226" type="veh_passenger" depart="526.37" departLane="best" departSpeed="max" from="208920309#0" to="711989785#1"/>
    <trip id="veh227" type="veh_passenger" depart="528.70" departLane="best" from="324604637#2" to="4768714#7"/>
    <trip id="veh228" type="veh_passenger" depart="531.03" departLane="best" from="662272978#2" to="569460351#2"/>
    <trip id="veh229" type="veh_passenger" depart="533.36" departLane="best" from="208555095#0" to="-13907174#3"/>
    <trip id="veh230" type="veh_passenger" depart="535.69" departLane="best" from="207831942#2" to="56728217"/>
    <trip id="veh231" type="veh_passenger" depart="538.02" departLane="best" from="658631140#1" to="715611144#9"/>
    <trip id="veh232" type="veh_passenger" depart="540.35" departLane="best" from="30179552#1" to="37696593#3"/>
    <trip id="veh233" type="veh_passenger" depart="542.67" departLane="best" from="198005100#5" to="197979803#0"/>
    <trip id="veh234" type="veh_passenger" depart="545.00" departLane="best" from="217383026" to="-208643582#4"/>
    <trip id="veh235" type="veh_passenger" depart="547.33" departLane="best" from="207799527#2" to="46305934#0"/>
    <trip id="veh236" type="veh_passenger" depart="549.66" departLane="best" from="208677470#2" to="14712362#2"/>
    <trip id="veh237" type="veh_passenger" depart="551.99" departLane="best" departSpeed="max" from="24531077" to="134621272#2"/>
    <trip id="veh238" type="veh_passenger" depart="554.32" departLane="best" from="386419596#7" to="-208643582#14"/>
    <trip id="veh239" type="veh_passenger" depart="556.65" departLane="best" from="208643582#14" to="316160748#0"/>
    <trip id="veh240" type="veh_passenger" depart="558.98" departLane="best" from="-208643582#13" to="4306021#7"/>
    <trip id="veh241" type="veh_passenger" depart="561.31" departLane="best" from="135951295#5" to="25425328#2"/>
    <trip id="veh242" type="veh_passenger" depart="563.64" departLane="best" from="-30179549" to="208642573#2"/>
    <trip id="veh243" type="veh_passenger" depart="565.97" departLane="best" from="198005097#6" to="207516094#1"/>
    <trip id="veh244" type="veh_passenger" depart="568.29" departLane="best" from="569443031#2" to="208642573#2"/>
    <trip id="veh246" type="veh_passenger" depart="572.95" departLane="best" from="-207277353#1" to="296383969#0"/>
    <trip id="veh247" type="veh_passenger" depart="575.28" departLane="best" from="97795760#3" to="207883950#3"/>
    <trip id="veh248" type="veh_passenger" depart="577.61" departLane="best" from="4308541#9" to="580628690#0"/>
    <trip id="veh249" type="veh_passenger" depart="579.94" departLane="best" from="4308557#13" to="56730487#1"/>
    <trip id="veh251" type="veh_passenger" depart="584.60" departLane="best" from="-207884332#3" to="13757666#11"/>
    <trip id="veh253" type="veh_passenger" depart="589.26" departLane="best" from="4768714#7" to="569460355#3"/>
    <trip id="veh255" type="veh_passenger" depart="593.91" departLane="best" from="550361772#2" to="13305896#0"/>
    <trip id="veh256" type="veh_passenger" depart="596.24" departLane="best" from="60725476#2" to="734406094#13"/>
    <trip id="veh257" type="veh_passenger" depart="598.57" departLane="best" from="131724935#0" to="-208643582#1"/>
    <trip id="veh258" type="veh_passenger" depart="600.90" departLane="best" from="207277351#3" to="46297971#1"/>
    <trip id="veh259" type="veh_passenger" depart="603.23" departLane="best" from="716896421" to="208677470#0"/>
    <trip id="veh260" type="veh_passenger" depart="605.56" departLane="best" from="5035772#7" to="-5118207#0"/>
    <trip id="veh261" type="veh_passenger" depart="607.89" departLane="best" from="470925305#4" to="39451704#15"/>
    <trip id="veh262" type="veh_passenger" depart="610.22" departLane="best" from="108715490#5" to="569718744#1"/>
    <trip id="veh263" type="veh_passenger" depart="612.55" departLane="best" from="658620796#1" to="370664617#1"/>
    <trip id="veh264" type="veh_passenger" depart="614.88" departLane="best" from="13305896#1" to="767384958#0"/>
    <trip id="veh265" type="veh_passenger" depart="617.20" departLane="best" from="57018292#0" to="207883950#0"/>
    <trip id="veh267" type="veh_passenger" depart="621.86" departLane="best" departSpeed="max" from="27787482#0" to="207831779#1"/>
    <trip id="veh268" type="veh_passenger" depart="624.19" departLane="best" from="658620795#1" to="61532925#1"/>
    <trip id="veh269" type="veh_passenger" depart="626.52" departLane="best" from="131724914#1" to="725207459"/>
    <trip id="veh272" type="veh_passenger" depart="633.51" departLane="best" from="510732895#6" to="734406094#8"/>
    <trip id="veh273" type="veh_passenger" depart="635.84" departLane="best" from="198874546#6" to="60722746#2"/>
    <trip id="veh274" type="veh_passenger" depart="638.17" departLane="best" from="295476230#9" to="27008378#3"/>
    <trip id="veh275" type="veh_passenger" depart="640.50" departLane="best" from="217383026" to="510732896#3"/>
    <trip id="veh276" type="veh_passenger" depart="642.82" departLane="best" from="198874546#3" to="658620803"/>
    <trip id="veh277" type="veh_passenger" depart="645.15" departLane="best" from="616097571#1" to="-710590768"/>
    <trip id="veh278" type="veh_passenger" depart="647.48" departLane="best" from="70811699#3" to="198559565#1"/>
    <trip id="veh279" type="veh_passenger" depart="649.81" departLane="best" departSpeed="max" from="24531077" to="386419596#1"/>
    <trip id="veh280" type="veh_passenger" depart="652.14" departLane="best" from="208555093#1" to="-208643582#4"/>
    <trip id="veh281" type="veh_passenger" depart="654.47" departLane="best" from="658620799#1" to="172405421#2"/>
    <trip id="veh282" type="veh_passenger" depart="656.80" departLane="best" from="207830040#8" to="68861815#2"/>
    <trip id="veh283" type="veh_passenger" depart="659.13" departLane="best" from="481307371" to="198989378#10"/>
    <trip id="veh286" type="veh_passenger" depart="666.12" departLane="best" from="27007193#0" to="569443032#2"/>
    <trip id="veh287" type="veh_passenger" depart="668.44" departLane="best" from="470925305#4" to="4308541#6"/>
    <trip id="veh288" type="veh_passenger" depart="670.77" departLane="best" from="27007198#0" to="581959654#2"/>
    <trip id="veh289" type="veh_passenger" depart="673.10" departLane="best" from="10586814#0" to="198005097#1"/>
    <trip id="veh290" type="veh_passenger" depart="675.43" departLane="best" from="471354240#4" to="207277351#0"/>
    <trip id="veh291" type="veh_passenger" depart="677.76" departLane="best" from="323916051#2" to="26431522#1"/>
    <trip id="veh292" type="veh_passenger" depart="680.09" departLane="best" from="295476229" to="217383025#0"/>
    <trip id="veh293" type="veh_passenger" depart="682.42" departLane="best" from="485830401#0" to="198874545#2"/>
    <trip id="veh294" type="veh_passenger" depart="684.75" departLane="best" from="198715273#7" to="13309253#1"/>
    <trip id="veh295" type="veh_passenger" depart="687.08" departLane="best" from="190727196#1" to="13308974#1"/>
    <trip id="veh296" type="veh_passenger" depart="689.41" departLane="best" from="295476230#6" to="569455487#6"/>
    <trip id="veh297" type="veh_passenger" depart="691.74" departLane="best" from="187918252#2" to="197979802#1"/>
    <trip id="veh298" type="veh_passenger" depart="694.06" departLane="best" from="27007166#0" to="5072825#9"/>
    <trip id="veh299" type="veh_passenger" depart="696.39" departLane="best" from="735338668#9" to="287822401"/>
    <trip id="veh300" type="veh_passenger" depart="698.72" departLane="best" departSpeed="max" from="199649971#0" to="108715490#5"/>
    <trip id="veh301" type="veh_passenger" depart="701.05" departLane="best" from="179614831#3" to="-181987928#1"/>
    <trip id="veh302" type="veh_passenger" depart="703.38" departLane="best" from="295476230#4" to="198874547"/>
    <trip id="veh303" type="veh_passenger" depart="705.71" departLane="best" from="735338668#10" to="314394242#6"/>
    <trip id="veh304" type="veh_passenger" depart="708.04" departLane="best" from="4768714#5" to="134621272#0"/>
    <trip id="veh308" type="veh_passenger" depart="717.36" departLane="best" from="187918252#1" to="-315404858"/>
    <trip id="veh309" type="veh_passenger" depart="719.68" departLane="best" from="715211394#21" to="27007177"/>
    <trip id="veh310" type="veh_passenger" depart="722.01" departLane="best" from="61532899" to="208678438#3"/>
    <trip id="veh311" type="veh_passenger" depart="724.34" departLane="best" from="-49961631#2" to="39451704#7"/>