<?xml version="1.0" encoding="UTF-8"?>

<!-- generated on Sun Mar  1 15:31:27 2020 by Eclipse SUMO duarouter Version 1.2.0
<configuration xmlns:xsi="http://www.w3.org/2001/XMLSchema-instance" xsi:noNamespaceSchemaLocation="http://sumo.dlr.de/xsd/duarouterConfiguration.xsd">

    <input>
        <net-file value="osm.net.xml"/>
        <route-files value="osm.passenger.trips.xml"/>
    </input>

    <output>
        <output-file value="routes.rou.xml"/>
        <alternatives-output value="routes.rou.alt.xml"/>
    </output>

    <time>
        <begin value="0"/>
        <end value="3600.0"/>
    </time>

    <report>
        <no-warnings value="true"/>
        <ignore-errors value="true"/>
        <no-step-log value="true"/>
    </report>

</configuration>
-->

<routes xmlns:xsi="http://www.w3.org/2001/XMLSchema-instance" xsi:noNamespaceSchemaLocation="http://sumo.dlr.de/xsd/routes_file.xsd">
    <vType id="veh_passenger" vClass="passenger"/>
    <vehicle id="veh0" type="veh_passenger" depart="0.00" departLane="best">
        <route edges="4306021#21 4306021#22 207831779#4 207831779#5 207831779#6 207831779#8 198005096#1 198005096#2 715211389#0 715211389#2 715211389#5 715211389#6 715211389#8 715211389#9 715211389#12 715211389#13 316166609#4 316166609#5 316166609#7 316166609#8 316166609#9 316166609#10 316166609#11 316166609#12 316166609#13 208793255#16 208793255#21 715611143#1 672401683#1 672401683#2 -197845905#5 -197845905#4 -197845905#3 -197845905#2 -197845905#1 -208642577#5"/>
    </vehicle>
    <vehicle id="veh1" type="veh_passenger" depart="2.33" departLane="best">
        <route edges="198989378#9 448300740#5 448300740#6 448300740#8 448300740#9 448300740#10 70809604#1 569460351#1 569460351#2 198989380#2 70811699#1 70811699#2 70811699#3 70811699#4 70811699#5 207298902#1 207298902#2 207298902#3 207298902#4 207830036#1 207830036#2 208641736#4 208641736#5 208641736#9 208641736#10 581959658#1 581959658#4 198005097#1 198005097#2 198005097#5 198005097#6"/>
    </vehicle>
    <vehicle id="veh2" type="veh_passenger" depart="4.66" departLane="best" departSpeed="max">
        <route edges="5118205#0 5118205#1 172405421#4 569455492#1 716896421 4768714#0 4768714#1 4768714#2 4768714#3 69976421#0 69976421#1 69976421#2 208641735#1 581959642#0 581959642#1 235931746#0 235931746#1 235931746#4 581959661#1 581959661#4 581959661#5 505256329#1 505256329#2 505256329#6 208642575#1 208642575#2 208642575#3 208642575#4 208642575#5 208642575#6 208642575#7 712187000 46305928#0 46305928#1 46305928#2 46296475 712187004#0 712187004#1 208652071 581717495#0 581717495#1 581717495#2 46297971#0 46297971#1"/>
    </vehicle>
    <vehicle id="veh3" type="veh_passenger" depart="6.99" departLane="best">
        <route edges="71079797#3 71079797#4 254443127#1 52137279 46829235#1 46829235#2 295476230#0 295476230#1 295476230#3 295476230#4 295476230#5 295476230#6 295476230#7 295476230#8 295476230#9 295476230#10 296383692 296383969#0 208643587#1 208643587#2 208643587#3 208643587#4 208643587#5 207831319#1 208641736#4 208641736#5 208641736#9 208641736#10 315229025#1 315229025#2 315229025#3 315229025#4 315229025#5 315229025#10 315229025#11 206506959#11 206506959#14 616097571#1 616097571#2 616097571#4 30179566#1 30179566#2 30179566#4 30179566#6 198874546#0 198874546#3 198874546#4 33803214#7 471354240#0 471354240#3 471354240#4 -712160016"/>
    </vehicle>
    <vehicle id="veh4" type="veh_passenger" depart="9.32" departLane="best">
        <route edges="208920309#2 208920309#3 134621885#0 550361772#1 550361772#2 550361772#3 65057040#1 65057040#2 -208643582#8 -208643582#7"/>
    </vehicle>
    <vehicle id="veh5" type="veh_passenger" depart="11.65" departLane="best">
        <route edges="198005100#2 198005100#3 198737797#6 187918254#1 187918254#3 187918254#4 187918254#7 712188097 279989317"/>
    </vehicle>
    <vehicle id="veh7" type="veh_passenger" depart="16.30" departLane="best">
        <route edges="4308541#8 4308541#9 215318654#1 215318654#2 207831636#1 207831636#2 316166613#1 316166613#2 316166613#3 316166613#5 208793255#4 208793255#7 208793255#13 208793255#16 208793255#21 715611143#1 672401683#1 672401683#2 -197845905#5 -197845905#4 -197845905#3 -197845905#2 -197845905#1 197845901#1 5035772#4 5072826#0 5072826#1 5072826#2 5072826#3 5072826#4 5072826#5 5072826#6 5072826#7 208641733#0 208641733#2 4768714#7 217383026 507137553#0 507137553#1 -767384959 -746789182#0 -746789181 -30179549 30179550#0 198874545#0 198874545#1 198874545#2 30179552#0 30179552#1"/>
    </vehicle>
    <vehicle id="veh8" type="veh_passenger" depart="18.63" departLane="best">
        <route edges="198005100#5 198005100#6 198005100#8 198737797#1 198737797#2 198737797#3 198737797#6 386419596#1 386419596#2 386419596#3 386419596#4 386419596#5 386419596#6 386419596#7 386419596#14 386419596#15 386419596#16 386419596#17 386419596#18 734406093#3 734406094#1 734406094#8 734406094#10 734406094#11 734406094#12 734406094#13 581959650#1 581959650#2 581959650#3 581959650#4 581959661#1 581959661#4 581959661#5 315229025#1 315229025#2 -14716364#2 -14716364#1 -14716364#0 715201470#30 715201470#31 715201470#32 323916051#2 323916051#3 323916051#4 323916051#5 616097570#13 616097570#14 207298905#1 70811762#1 70811762#3 70811762#4 569460350#2 569460350#3 198989378#3 198989378#6 198989378#7 198989378#9 198989378#10 198989378#11 198989378#12 198989378#13 377679323 -329659976#0 329659976#0"/>
    </vehicle>
    <vehicle id="veh9" type="veh_passenger" depart="20.96" departLane="best">
        <route edges="581959669#3 581959669#4 581959669#5 108715490#1 108715490#4 108715490#5 711989783#1 711989783#2 711989783#3 711989783#4 581959654#1 581959654#2 -13908118#1"/>
    </vehicle>
    <vehicle id="veh10" type="veh_passenger" depart="23.29" departLane="best">
        <route edges="581959667#1 581959667#2 581959667#3 197979803#0 616097571#1 616097571#2 616097571#4 30179566#1 26431237#0 26431237#1 56730487#1 56730487#2 285898771 27508477#0 27508477#1 27007198#0 13301454#0-AddedOnRampEdge 13301454#0 207277772#1 207277772#1-AddedOffRampEdge 505037806#0 27007194 481307371"/>
    </vehicle>
    <vehicle id="veh11" type="veh_passenger" depart="25.62" departLane="best">
        <route edges="207830040#7 207830040#8 207830040#10 207831526#2 207831526#3 207831528#4 207831528#6 207831528#7 207831528#8 316166617#1 207831778#1 207831778#2 207831778#3 4308557#20 4308557#21 13858295#0 13858295#1 13858295#2"/>
    </vehicle>
    <vehicle id="veh12" type="veh_passenger" depart="27.95" departLane="best">
        <route edges="716689904#8 716689904#9 43870461#1 569460351#1 569460351#2 198989380#2 70811699#1 70811699#2 70811699#3 70811699#4 70811699#5 207298902#1 207298902#2 207298902#3 207298902#4 207830036#1 207830036#2 207830040#4 207830040#5 207830040#6 207830040#7 207830040#8 207830040#10 207831526#2 207831526#3 207831528#4 207831528#6 207831528#7"/>
    </vehicle>
    <vehicle id="veh13" type="veh_passenger" depart="30.28" departLane="best">
        <route edges="10541785#1 208506752#3 208506754#1 208489244#10 208489244#11 715211380#2 198737812#1 198737812#5 581976096#1 279989322#1 658620796#1 279989318#0 712188097 279989317 279989327#4 658620799#1 672401683#1 672401683#2 -197845905#5 -197845905#4 -197845905#3 -197845905#2 -197845905#1 197845901#1 5035772#4 5072826#0 5072826#1 5072826#2 5072826#3 5072826#4 5072826#5 5072826#6 5072826#7 208641733#0 208641733#2 4768714#7 217383026 507137553#0 507137553#1 -767384959 -746789182#0 -746789181 -30179549 30179550#0 198874545#0 198874545#1 198874545#2 27508477#0 27508477#1 135951291#0 481307372 39451666 13305896#0-AddedOnRampEdge 13305896#0 13305896#1 504914080#0 504914080#1 504914080#2 198559866#0 198559866#1 198559866#2 756380309#0 756380309#1 97795760#0 97795760#3 28295110#0 28295110#1 106475584#2 106475584#3 106475584#4"/>
    </vehicle>
    <vehicle id="veh14" type="veh_passenger" depart="32.61" departLane="best">
        <route edges="658620788#1 581959643#2 208642571#0 208642571#1 208642571#2 208641733#0 208641733#2 4768714#7 217383026 507137553#0 507137553#1 -767384959 -746789182#0 -746789181 -30179549 30179550#0 198874545#0 198874545#1 198874545#2 27508477#0 27508477#1 135951291#0 481307372 39451666 13305896#0-AddedOnRampEdge 13305896#0 13305896#1 8095795#0 8095795#1 8095795#2 8095795#3 8095790#0 8095790#1 207277351#0 207277351#3 207277351#4 207277351#5 207277349#0 207277349#1 207277349#3 207277349#5 37696593#0 37696593#1 37696593#3 37696593#5"/>
    </vehicle>
    <vehicle id="veh15" type="veh_passenger" depart="34.94" departLane="best">
        <route edges="581959667#3 197979803#0 616097571#1 616097571#2 616097571#4 30179566#1 510732896#1 510732896#2 510732896#3 510732895#5"/>
    </vehicle>
    <vehicle id="veh16" type="veh_passenger" depart="37.27" departLane="best">
        <route edges="295476230#7 295476230#8 295476230#9 295476230#10 296383692 296383969#0 208643587#1 208643587#2 208643587#3 208643587#4 208643587#5 207831319#1 208642573#1 208642573#2 207830034#1 207830034#2 207830034#3 207298905#1 70811762#1 70811762#3 70811762#4 198989372#1 198989372#2 -27462663#1 735135951#0"/>
    </vehicle>
    <vehicle id="veh17" type="veh_passenger" depart="39.59" departLane="best">
        <route edges="208554968#1 -208554968#1 -208554968#0 208554967#0 198005096#1 198005096#2 715211389#0 715211389#2 715211389#5 715211389#6 715211389#8 715211389#9 715211389#12 715211389#13 316166609#4 316166609#5 316166609#7 316166609#8 316166609#9 316166609#10 316166609#11 316166609#12 316166609#13 208793255#16 208793255#21 715611143#1 672401683#1 672401683#2 -197845905#5 -197845905#4 -197845905#3 -197845905#2 -197845905#1 197845901#1 5035772#4 5072826#0 5072826#1 5072826#2 5072826#3 5072826#4 5072826#5 5072826#6 5072826#7 208641733#0 208641733#2 4768714#7 217383026 507137553#0 507137553#1 -767384959 -746789182#0 -746789181 -30179549 30179550#0 198874546#0 198874546#3 198874546#4 198874546#6 314394242#2"/>
    </vehicle>
    <vehicle id="veh18" type="veh_passenger" depart="41.92" departLane="best">
        <route edges="616097570#5 218671037#1 218671037#2 218671037#3 218671037#4 218671037#5 711989783#1 711989783#2 711989783#3 711989783#4 581959654#1 581959654#2 315229024#0 315229024#2 296383691#12 296383691#15 198005098#1 198005098#2 198005098#3 198005098#4 198005098#5 198005098#12 198005098#13 734406095#1 734406096#2 734406096#3 734406096#10 -458387034 386419596#6 386419596#7"/>
    </vehicle>
    <vehicle id="veh19" type="veh_passenger" depart="44.25" departLane="best">
        <route edges="664287432#2 664287432#3 658620806#1 581959669#0 135953375#1 135953375#2 135953375#3 135953375#4 135953375#5 135953375#6 135953375#8 135953375#14 135953375#15 135953375#17 135953375#21 135953375#22 135953375#23 135953375#24 135953375#25 135953375#26 135953375#27 715611144#4 715611144#5 715611144#6 715611144#7 715611144#8 715611144#9 715611144#10 316166393#0 316166393#1 323916050#1 323916050#2 323916050#3 323916050#4 323916050#5 323916050#6 323916050#7"/>
    </vehicle>
    <vehicle id="veh20" type="veh_passenger" depart="46.58" departLane="best">
        <route edges="495981559 -495981559 10586814#0 10586814#1 10586814#3 325560843#4 325560844 325560845#0 325560846 325560847#3 325560847#4 325560848#1 286827633#0 286827633#1 286827633#2 285898790 711952035 711952030 8095787#0 8095787#1 135951295#2 135951295#3 135951295#4 135951295#5 135951295#6 135951295#7 329659971#2 329659971#4 284676479#1 284676479#3 -284676479#3"/>
    </vehicle>
    <vehicle id="veh22" type="veh_passenger" depart="51.24" departLane="best">
        <route edges="-56730487#0 56730595 25428380#2 658620781 664287431 658620788#1 581959641#1 658620787#0 658620787#1 658620787#2 135952928#1 658620790#1 658620790#2 235931748#1 235931748#4 198005098#12 198005098#13 734406095#1 734406096#2 734406096#3 734406096#10 734406096#11 734406096#12 734406096#13 734406096#14 734406096#15 734406096#16 198005100#2 198005100#3 198005100#4 198005100#5 198005100#6"/>
    </vehicle>
    <vehicle id="veh23" type="veh_passenger" depart="53.57" departLane="best">
        <route edges="108715490#4 108715490#5 315229025#10 315229025#11 616097570#11 616097570#13 616097570#14 207298905#1 70811762#1 70811762#3 70811762#4 569460350#2 569460350#3 198989378#3"/>
    </vehicle>
    <vehicle id="veh25" type="veh_passenger" depart="58.23" departLane="best">
        <route edges="208506442#11 581959657#0 581959658#1 581959658#4 581959652#1 715611130#1 581959641#1 658620787#0 658620787#1 658620787#2 658647983#0 658647983#1 197845901#1 5035772#4 5035772#5 5035772#6 5035772#7 191523280#0 191523280#1 191523280#2 191523280#3 191523280#4 191523280#5 191523280#6"/>
    </vehicle>
    <vehicle id="veh26" type="veh_passenger" depart="60.56" departLane="best">
        <route edges="198874545#2 -285898771 -56730487#2 -56730487#1 -56730487#0 56730595 25428380#2 658620781 664287431 658620788#1 581959641#1 658620787#0 658620787#1 658620787#2 135952928#1 658620790#1 658620790#2 235931748#1 715611144#4 715611144#5 715611144#6 715611144#7 715611144#8 715611144#9 715611144#10 316166393#0 316166393#1 190727195#4 190727196#1 190727196#2 715211389#0 715211389#2 715211389#5 715211389#6"/>
    </vehicle>
    <vehicle id="veh27" type="veh_passenger" depart="62.89" departLane="best">
        <route edges="4308541#3 4308557#9 4308557#12 4308557#13 4308557#14 4308557#15 4308557#16 4308557#20 4308557#21 4308557#24 4308557#25 4308557#26 208498196#1 208498196#2 208498196#3 208498196#4 208498196#5 715181642#0 715181642#1 715181642#2 715181642#3 715181642#4 715181642#8 715181642#15 715181642#17 715181642#18 715181642#19 715181642#20 715181642#21 715181642#22 207831942#5 386416108#1 386416108#2 386416108#3"/>
    </vehicle>
    <vehicle id="veh28" type="veh_passenger" depart="65.21" departLane="best">
        <route edges="17037397#0 17037397#1 17037397#2 309519056#1 -208554968#2 -208554968#1 -208554968#0 208554967#0 198005096#1 198005096#2 715211389#0 715211389#2 715211389#5 715211389#6 715211389#8 715211389#9 715211389#12 715211389#13 316166609#4 316166609#5 316166609#7 316166609#8 316166609#9 316166609#10 316166609#11 316166609#12 316166609#13 208793255#16 208793255#21 715611143#1 672401689#1 664287430#1 664287430#2 658620802#0 505256324#1 658620803 658620805#0 505256327#1 664287432#1 664287432#2 664287432#3 658620806#1 207883950#0 207883950#1 207883950#3 135953468#0 510732895#2 510732895#3 510732895#4"/>
    </vehicle>
    <vehicle id="veh29" type="veh_passenger" depart="67.54" departLane="best">
        <route edges="14720224#0 14720224#1 14720224#2 14720224#3 14720224#4 208506442#5 191505563#13 191505563#16 207831943#1 207831943#2 207831533#1 207831533#2 208556977#0 208556977#1 208556977#2 296383969#6 581717500 622561169 46305934#0 46305934#1 46305934#2 208642574#0"/>
    </vehicle>
    <vehicle id="veh30" type="veh_passenger" depart="69.87" departLane="best" departSpeed="max">
        <route edges="770389939 6262311 207128342#0 207128342#1 207128342#2 715581287#0 715581287#1 27007166#0 27007166#1 27007175 27007193#0 13305964 481307370#0 13301454#0-AddedOnRampEdge 13301454#0 13301454#1 580628690#0 39947804#1 716689904#1 716689904#2 40002212#1 40002212#2 198989380#2 70811699#1 70811699#2 70811699#3 70811699#4 70811699#5 207298902#1 207298902#2 207298902#3 207298902#4 207830036#1 207830036#2 207830040#4 207830040#5 207830040#6 207830040#7 207830040#8 207830040#10 207831526#2 207831526#3 207831528#4 207831528#6 207831528#7 207831528#8 316166617#1 207831779#1 4306021#26 4306021#27 4306021#28 4306021#29 4306021#30 4306021#31 4306021#32"/>
    </vehicle>
    <vehicle id="veh31" type="veh_passenger" depart="72.20" departLane="best">
        <route edges="65057040#2 207516091#1 207516091#2 207830034#1 207830034#2 207830034#3 207298905#1 70811762#1 70811762#3 70811762#4 198989372#1 198989372#2 198989372#3 207277768#7 716689903#1 716689903#2 580628691 580628688 207277772#1 207277772#1-AddedOffRampEdge 27007200#0 13305896#0-AddedOnRampEdge 13305896#0 13305896#1 504914080#0 504914080#1 504914080#2 198559866#0 198559866#1 198559866#2 756380309#0 756380309#1 97795760#0 97795760#3 207128343#0 207128343#2 715427350#0 106475583 569758998#0 569758998#1"/>
    </vehicle>
    <vehicle id="veh33" type="veh_passenger" depart="76.86" departLane="best">
        <route edges="207277766#1 207277766#2 258070011 68861814#0 68861814#1 68861814#2 580628691 580628688 207277772#1 207277772#1-AddedOffRampEdge 505037806#0 27007194 481307371 198559867#0 198559867#1 -285898771 -56730487#2 -56730487#1 -26431237#1 -26431237#0 198874544#6"/>
    </vehicle>
    <vehicle id="veh35" type="veh_passenger" depart="81.52" departLane="best">
        <route edges="4308557#4 4308541#6 4308541#8 4308541#9 576911615#1 218688446#0 218688446#1 218688446#2 218688446#4 208677469#1 208677469#2 208677469#3"/>
    </vehicle>
    <vehicle id="veh36" type="veh_passenger" depart="83.85" departLane="best">
        <route edges="712160042#1 61532911#6 61532911#1 61532911#2 61532911#3 26433528 470925303#0 470925303#1 470925303#3 470925303#4 61532899 27508477#0 27508477#1 27007198#0 13301454#0-AddedOnRampEdge 13301454#0 13301454#1 580628690#0 207277770#1 662272978#0 662272978#1 210177009 258070010#2 27462457 249648592#3 -249652292#1 -249652292#0 249652292#0"/>
    </vehicle>
    <vehicle id="veh37" type="veh_passenger" depart="86.18" departLane="best">
        <route edges="198874544#7 30179566#1 26431237#0 26431237#1 56730487#1 56730487#2 285898771 27508477#0 27508477#1 135951291#0 481307372 39451666 13305896#0-AddedOnRampEdge 13305896#0 13305896#1 504914080#0 504914080#1 504914080#2 198559866#0 198559866#1"/>
    </vehicle>
    <vehicle id="veh38" type="veh_passenger" depart="88.50" departLane="best">
        <route edges="325560842#2 10586814#0 10586814#1 10586814#3 325560843#4 325560844 325560845#0 325560846 325560847#3 325560847#4 325560848#1 286827633#0 286827633#1 286827633#2 285898790 711952035 711952030 8095787#0 8095787#1 57018292#0 57018292#1 57018292#2 711952033"/>
    </vehicle>
    <vehicle id="veh39" type="veh_passenger" depart="90.83" departLane="best">
        <route edges="208643587#2 208643587#3 208643587#4 208643587#5 207831319#1 208641736#4 208641736#5 208641736#9 208641736#10 315229025#1 315229025#2 315229025#3 315229025#4 315229025#5 711989785#1 711989785#4 711989785#5 581959667#1 581959667#2 581959667#3 197979803#0"/>
    </vehicle>
    <vehicle id="veh40" type="veh_passenger" depart="93.16" departLane="best">
        <route edges="97795760#0 715581287#0 715581287#1 27007166#0 27007166#1 27007175 27007196#0 198559867#0 198559867#1 -285898771 -56730487#2 -56730487#1 -56730487#0 56730595 25428380#2 658620781 664287431 658620788#1 581959641#1 658620787#0 658620787#1 658620787#2 135952928#1 658620790#1 658620790#2 672401684#1 658620795#1 316166375#1 664287428 279989324#0 279989324#1 279989324#2"/>
    </vehicle>
    <vehicle id="veh41" type="veh_passenger" depart="95.49" departLane="best">
        <route edges="-746789182#0 746789182#0 767384959 217383025#0 217383025#1 569455492#1 716896421 4768714#0 4768714#1 4768714#2 4768714#3 69976421#0 69976421#1 69976421#2 208641735#1 208642577#1 208642577#2 208642577#4 208642577#5 197845905#1 197845905#2 197845905#3 197845905#4 197845905#5 208793253#3 208793253#4 208793253#5 672401684#1 658620795#1 208489241#6 208489243#0 208489243#1 -28519847#1 -28519847#0"/>
    </vehicle>
    <vehicle id="veh42" type="veh_passenger" depart="97.82" departLane="best" departSpeed="max">
        <route edges="131724936#0 131724936#1 131724936#2 131724962#0 131724962#3 131724927#0 218688446#0 218688446#1 218688446#2 218688446#4 208677473#2 208677473#3 208677470#0 208675774#0 198005395#1 198005395#2 198005395#3 378406887#4 25425692#0 25425692#2 25425692#3 207884127 279989325#0 581976096#1 279989322#1 658620796#1 279989318#0 712188097 279989317 279989327#4 658620799#1 672401683#1 672401683#2 -197845905#5 -197845905#4 -197845905#3 -197845905#2 -197845905#1 197845901#1 5035772#4 5072826#0 5072826#1 5072826#2 5072826#3 5072826#4 5072826#5 5072826#6 5072826#7 208641733#0 208641733#2 4768714#7 217383026 507137553#0 507137553#1 -767384959 569455489#0 569455489#1 33803215#8 712157731#1 39451704#15"/>
    </vehicle>
    <vehicle id="veh43" type="veh_passenger" depart="100.15" departLane="best">
        <route edges="581717496#1 581717496#2 569462786#0 569462786#1 569462786#3 711993455#0 199310502#0 199310502#1 199310502#2 199310502#3 199310502#4 199310502#5 199310502#6 207831636#1 207831636#2 316166613#1 316166613#2 316166613#3 316166613#5 208793255#4 208793255#7 208793255#13 208793255#16 208793255#21 715611143#1 672401683#1 672401683#2 -197845905#5 -197845905#4 -197845905#3 -197845905#2 -197845905#1 197845901#1 5035772#4 5072826#0 5072826#1 5072826#2 5072826#3 5072826#4 5072826#5 5072826#6 5072826#7 208641733#0 208641733#2 4768714#7 4768714#8 716896421 217383023#0 217383023#1 217383023#2"/>
    </vehicle>
    <vehicle id="veh44" type="veh_passenger" depart="102.48" departLane="best">
        <route edges="-44158377#4 -44158377#3 70809604#1 569460351#1 569460351#2 198989380#2 70811699#1 70811699#2 70811699#3 70811699#4 70811699#5 207298902#1 207298902#2 207298902#3 207298902#4 207830036#1 207830036#2 208642575#1"/>
    </vehicle>
    <vehicle id="veh45" type="veh_passenger" depart="104.81" departLane="best">
        <route edges="8095795#2 8095795#3 286827641#0 286827641#1 286827633#0 286827633#1 286827633#2 27007177 27007175 27007193#0 13305964 481307370#0 13301454#0-AddedOnRampEdge 13301454#0 13301454#1 580628690#0 39947804#1 716689904#1 716689904#2 40002212#1 40002212#2 198989380#2 70811699#1 70811699#2 70811699#3 70811699#4 70811699#5 207298902#1 207298902#2 207298902#3 207298902#4 207830036#1 207830036#2 207830040#4 207830040#5 207830040#6 207830040#7 207830040#8 207830040#10 207831526#2 207831526#3 207831528#4 207831528#6 207831528#7 207831528#8 316166617#1 207831778#1 207831778#2 207831778#3 207831778#4 207831778#5 207831778#6 207831778#8 711993453 386570592#0 386570592#2 295476229"/>
    </vehicle>
    <vehicle id="veh46" type="veh_passenger" depart="107.14" departLane="best">
        <route edges="734406096#16 187918254#1 187918254#3 187918254#4 187918254#7 712188097 279989317 279989327#4 658620799#1 672401689#1 664287430#1 664287430#2 658620802#0 505256324#1 658620803 658620805#0 505256327#1 664287432#1"/>
    </vehicle>
    <vehicle id="veh47" type="veh_passenger" depart="109.47" departLane="best">
        <route edges="-14716364#1 -14716364#0 715201470#30 715201470#31 715201470#32 207516093#8 711989783#1 711989783#2 711989783#3 711989783#4 581959658#1 581959658#4 581959652#1 715611130#1 581959643#2 208642571#0 208642571#1 208642571#2 208641733#0 208641733#2 4768714#7 217383026 507137553#0 507137553#1"/>
    </vehicle>
    <vehicle id="veh49" type="veh_passenger" depart="114.12" departLane="best">
        <route edges="198874545#2 -285898771 -56730487#2 -56730487#1 -56730487#0 56730595 25428380#2 658620781 664287431 658620788#1 581959641#1 658620787#0 658620787#1 658620787#2 135952928#1 658620790#1 658620790#2 235931748#1 715611144#4 715611144#5 715611144#6 715611144#7 715611144#8 715611144#9 715611144#10 316166393#0 316166393#1 190727195#4 190727196#1 190727196#2 190727196#5 199429372#1 199429372#2 199429372#3 4306021#26 4306021#27 4306021#28 4306021#29 4306021#30 4306021#31 4306021#32 4306021#33 4306021#34 4306021#35"/>
    </vehicle>
    <vehicle id="veh51" type="veh_passenger" depart="118.78" departLane="best" departSpeed="max">
        <route edges="23212198 134621274#0 556168190#2 556168190#3 556168190#4 198715024#1 134621882#0 134621882#2 134621882#3-AddedOnRampEdge 134621882#3 258070011 68861814#0 68861814#1 68861814#2 39947804#1 716689904#1 716689903#1"/>
    </vehicle>
    <vehicle id="veh52" type="veh_passenger" depart="121.11" departLane="best">
        <route edges="68861814#2 39947804#1 716689904#1 716689904#2 40002212#1 40002212#2 198989380#2 70811699#1 70811699#2 70811699#3 70811699#4 70811699#5 207298902#1 207298902#2 207298902#3 207298902#4 207830036#1 207830036#2 208641736#4 208641736#5 208641736#9 208641736#10 581959654#1 581959654#2 315229024#0 315229024#2 296383691#12 296383691#15 198005098#1 198005098#2 198005098#3 198005098#4 198005098#5 198005098#12 198005098#13 734406095#1 734406096#2 734406096#3 734406096#10 734406096#11 734406096#12 734406096#13 734406096#14 734406096#15 734406096#16 198005100#2 198005100#3 198005100#4 198005100#5 198005100#6 198005100#8 198737806#1"/>
    </vehicle>
    <vehicle id="veh53" type="veh_passenger" depart="123.44" departLane="best">
        <route edges="27462661#0 -27462659#1 370664617#0 370664617#1 10586931#0 198989380#2 70811699#1 70811699#2 70811699#3 70811699#4 70811699#5 207298902#1 207298902#2 207298902#3 207298902#4 207830036#1 207830036#2 207830040#4 207830040#5 207830040#6 207830040#7 207830040#8 207830040#10 207831526#2 207831526#3 207831528#4 207831528#6 207831528#7 207831528#8 -286827108#2 -286827108#1 4306021#38 179614831#0 179614831#1 16862739#0"/>
    </vehicle>
    <vehicle id="veh54" type="veh_passenger" depart="125.77" departLane="best">
        <route edges="712157735 712157734 569455487#3 569455487#4 569455487#5 569455487#6 172405421#2 172405421#4 569455492#1 716896421 4768714#0 4768714#1 4768714#2 4768714#3 69976421#0 69976421#1 69976421#2 208641735#1 208642577#1 208642577#2 208642577#4 208642577#5 197845905#1 197845905#2 197845905#3 197845905#4 197845905#5 208793253#3 208793253#4 208793253#5 672401684#1 658620795#1 316166375#1 664287428 279989324#0 279989324#1 279989324#2 207883954#1 279989321#1 672401944#1"/>
    </vehicle>
    <vehicle id="veh55" type="veh_passenger" depart="128.10" departLane="best" departSpeed="max">
        <route edges="207128341 569758998#0 569758998#1 207128342#0 207128342#1 207128342#2 715581287#0 715581287#1 27007166#0 27007166#1 27007175 27007196#0 198559867#0 198559867#1 -285898771 -56730487#2 -56730487#1 -56730487#0 56730595 25428380#2 658620781 664287431 658620788#1 581959641#1 658620787#0 658620787#1 658620787#2 135952928#1 658620790#1 658620790#2 672401684#1 658620795#1 316166375#1 664287428 279989324#0 279989324#1 279989324#2 207883954#1 279989321#1 581976094#1 61511990#1 4742597 378406888#0 208677471#1 208677471#2 316160691#1 316160691#2 316160691#3 208678438#0 208678438#1 4306021#3"/>
    </vehicle>
    <vehicle id="veh56" type="veh_passenger" depart="130.43" departLane="best">
        <route edges="378406887#4 25425692#0 25425692#2 25425692#3 207884127 279989325#0 581976096#1 279989322#1 658620796#1 279989318#0 712188097 279989317 279989327#4 658620799#1 672401683#1 672401683#2 -197845905#5 -197845905#4 -197845905#3 -197845905#2 -197845905#1 197845901#1 5035772#4 5072826#0 5072826#1 5072826#2 5072826#3 5072826#4 5072826#5 5072826#6 5072826#7 208641733#0 208641733#2 4768714#7 217383026 507137553#0 507137553#1 -767384959 569455489#0 569455489#1 27008378#0 33803214#1 33803214#2 33803214#4 13757666#11 13757666#13"/>
    </vehicle>
    <vehicle id="veh57" type="veh_passenger" depart="132.76" departLane="best">
        <route edges="569443031#7 569443031#8 581959669#3 581959669#4 581959669#5 108715490#1 108715490#4 108715490#5 711989781#1 711989781#4 711989781#5 215312149#1 -208643582#8 -208643582#7 -208643582#6 -208643582#5 -208643582#4 -208643582#3 -208643582#2 -208643582#1 -208643582#0 208643585#0 208643585#1 208643585#2 208643585#4 208556977#0 208556977#1 208556977#2 296399431#3 296399431#4 296399431#5 296383692 296383969#0"/>
    </vehicle>
    <vehicle id="veh58" type="veh_passenger" depart="135.09" departLane="best" departSpeed="max">
        <route edges="569718745#0 208677471#1 208677471#2 316160691#1 316160691#2 316160691#3 208677469#1 208677469#2 208677469#3 208677469#4 208677469#5 199429376#4 199429376#8 198715273#1 198715273#2 198715273#6 198715273#7 198715273#8 198715270#1 198715270#4 711993453 386570592#0 386570592#2 295476229 295476230#0"/>
    </vehicle>
    <vehicle id="veh59" type="veh_passenger" depart="137.42" departLane="best">
        <route edges="-106475328#0 325560847#3 325560847#4 325560848#1 286827633#0 286827633#1 286827633#2 27007177 27007175 27007193#0 13305964 481307370#0 13301454#0-AddedOnRampEdge 13301454#0 13301454#1 580628690#0 39947804#1 716689904#1 716689904#2 40002212#1 40002212#2 198989380#2 70811699#1 70811699#2 70811699#3 70811699#4 70811699#5 207298902#1 207298902#2 207298902#3 207298902#4 207516093#4"/>
    </vehicle>
    <vehicle id="veh60" type="veh_passenger" depart="139.74" departLane="best">
        <route edges="-207277353#1 -13309027#1 325560846 325560847#3 325560847#4 325560848#1 286827633#0 286827633#1 286827633#2 27007177 27007175 27007193#0 13305964 481307370#0 13301454#0-AddedOnRampEdge 13301454#0 13301454#1 580628690#0 39947804#1 716689904#1 716689904#2 40002212#1 40002212#2 198989380#2 70811699#1 70811699#2 70811699#3 70811699#4 70811699#5 207298902#1 207298902#2 207298902#3 207298902#4 207830036#1 207830036#2 207830040#4 207830040#5 207830040#6 207830040#7 207830040#8 207830040#10 207831526#2 207831526#3 208793255#4 715201470#0 715201470#1 715201470#3"/>
    </vehicle>
    <vehicle id="veh61" type="veh_passenger" depart="142.07" departLane="best">
        <route edges="69976421#0 69976421#1 69976421#2 208641735#1 581959642#0 581959642#1 235931746#0 235931746#1 235931746#4 581959661#1 581959661#4 581959661#5 505256329#1 505256329#2 505256329#6 208642575#1 208642575#2 208642575#3 208642575#4 208643585#1 208643585#2 208643585#4 208556977#0 208556977#1 208556977#2 296383969#6 581717500 622561168"/>
    </vehicle>
    <vehicle id="veh62" type="veh_passenger" depart="144.40" departLane="best">
        <route edges="207128343#0 207128343#2 715427350#0 106475583 569758998#0 569758998#1 207128342#0 207128342#1 207128342#2 715581287#0 715581287#1 27007166#0 27007166#1 27007175 27007193#0 13305964 481307370#0 13301454#0-AddedOnRampEdge 13301454#0 13301454#1 580628690#0 39947804#1 716689904#1 716689904#2 40002212#1 40002212#2 198989371#1 -370664617#1"/>
    </vehicle>